<?xml version='1.0' encoding='utf-8'?>
<additional>
  <e1Detector index="0" id="e1det_114554802#7_0" lane="114554802#7_0" pos="1.0" freq="3600" file="DetectorOutput.xml" friendlyPos="true"/>
  <e1Detector index="1" id="e1det_122886923#3_0" lane="122886923#3_0" pos="1.0" freq="3600" file="DetectorOutput.xml" friendlyPos="true"/>
  <e1Detector index="2" id="e1det_122886921#1_0" lane="122886921#1_0" pos="1.0" freq="3600" file="DetectorOutput.xml" friendlyPos="true"/>
  <e1Detector index="3" id="e1det_-122886921#1_0" lane="-122886921#1_0" pos="1.0" freq="3600" file="DetectorOutput.xml" friendlyPos="true"/>
  <e1Detector index="4" id="e1det_-129300233#0_0" lane="-129300233#0_0" pos="1.0" freq="3600" file="DetectorOutput.xml" friendlyPos="true"/>
  <e1Detector index="5" id="e1det_-80727850#1_0" lane="-80727850#1_0" pos="1.0" freq="3600" file="DetectorOutput.xml" friendlyPos="true"/>
  <e1Detector index="6" id="e1det_122886922#2_0" lane="122886922#2_0" pos="1.0" freq="3600" file="DetectorOutput.xml" friendlyPos="true"/>
  <e1Detector index="7" id="e1det_-52656372#1_0" lane="-52656372#1_0" pos="1.0" freq="3600" file="DetectorOutput.xml" friendlyPos="true"/>
  <e1Detector index="8" id="e1det_195828013#3_0" lane="195828013#3_0" pos="1.0" freq="3600" file="DetectorOutput.xml" friendlyPos="true"/>
  <e1Detector index="9" id="e1det_-122949520#9_0" lane="-122949520#9_0" pos="1.0" freq="3600" file="DetectorOutput.xml" friendlyPos="true"/>
  <e1Detector index="10" id="e1det_114555769_0" lane="114555769_0" pos="1.0" freq="3600" file="DetectorOutput.xml" friendlyPos="true"/>
  <e1Detector index="11" id="e1det_122949520#9_0" lane="122949520#9_0" pos="1.0" freq="3600" file="DetectorOutput.xml" friendlyPos="true"/>
  <e1Detector index="12" id="e1det_-122949520#2_0" lane="-122949520#2_0" pos="1.0" freq="3600" file="DetectorOutput.xml" friendlyPos="true"/>
  <e1Detector index="13" id="e1det_122949520#1_0" lane="122949520#1_0" pos="1.0" freq="3600" file="DetectorOutput.xml" friendlyPos="true"/>
  <e1Detector index="14" id="e1det_-122949524#1_0" lane="-122949524#1_0" pos="1.0" freq="3600" file="DetectorOutput.xml" friendlyPos="true"/>
  <e1Detector index="15" id="e1det_122949524#2_0" lane="122949524#2_0" pos="1.0" freq="3600" file="DetectorOutput.xml" friendlyPos="true"/>
  <e1Detector index="16" id="e1det_36729014#0_0" lane="36729014#0_0" pos="1.0" freq="3600" file="DetectorOutput.xml" friendlyPos="true"/>
  <e1Detector index="17" id="e1det_122949524#0_0" lane="122949524#0_0" pos="1.0" freq="3600" file="DetectorOutput.xml" friendlyPos="true"/>
  <e1Detector index="18" id="e1det_-122949524#3_0" lane="-122949524#3_0" pos="1.0" freq="3600" file="DetectorOutput.xml" friendlyPos="true"/>
  <e1Detector index="19" id="e1det_122962417#0_0" lane="122962417#0_0" pos="1.0" freq="3600" file="DetectorOutput.xml" friendlyPos="true"/>
  <e1Detector index="20" id="e1det_-186631612#1_0" lane="-186631612#1_0" pos="1.0" freq="3600" file="DetectorOutput.xml" friendlyPos="true"/>
  <e1Detector index="21" id="e1det_36729013#1_0" lane="36729013#1_0" pos="1.0" freq="3600" file="DetectorOutput.xml" friendlyPos="true"/>
  <e1Detector index="22" id="e1det_-122962417#1_0" lane="-122962417#1_0" pos="1.0" freq="3600" file="DetectorOutput.xml" friendlyPos="true"/>
  <e1Detector index="23" id="e1det_123412755#1_0" lane="123412755#1_0" pos="1.0" freq="3600" file="DetectorOutput.xml" friendlyPos="true"/>
  <e1Detector index="24" id="e1det_81152597_0" lane="81152597_0" pos="1.0" freq="3600" file="DetectorOutput.xml" friendlyPos="true"/>
  <e1Detector index="25" id="e1det_-81152593_0" lane="-81152593_0" pos="1.0" freq="3600" file="DetectorOutput.xml" friendlyPos="true"/>
  <e1Detector index="26" id="e1det_82410883#0_0" lane="82410883#0_0" pos="1.0" freq="3600" file="DetectorOutput.xml" friendlyPos="true"/>
  <e1Detector index="27" id="e1det_123635329#1_0" lane="123635329#1_0" pos="1.0" freq="3600" file="DetectorOutput.xml" friendlyPos="true"/>
  <e1Detector index="28" id="e1det_28842830#0_0" lane="28842830#0_0" pos="1.0" freq="3600" file="DetectorOutput.xml" friendlyPos="true"/>
  <e1Detector index="29" id="e1det_-54821945#0_0" lane="-54821945#0_0" pos="1.0" freq="3600" file="DetectorOutput.xml" friendlyPos="true"/>
  <e1Detector index="30" id="e1det_36729036#1_0" lane="36729036#1_0" pos="1.0" freq="3600" file="DetectorOutput.xml" friendlyPos="true"/>
  <e1Detector index="31" id="e1det_-62383932#2_0" lane="-62383932#2_0" pos="1.0" freq="3600" file="DetectorOutput.xml" friendlyPos="true"/>
  <e1Detector index="32" id="e1det_77893334#0_0" lane="77893334#0_0" pos="1.0" freq="3600" file="DetectorOutput.xml" friendlyPos="true"/>
  <e1Detector index="33" id="e1det_77647468#2_0" lane="77647468#2_0" pos="1.0" freq="3600" file="DetectorOutput.xml" friendlyPos="true"/>
  <e1Detector index="34" id="e1det_149124872_0" lane="149124872_0" pos="1.0" freq="3600" file="DetectorOutput.xml" friendlyPos="true"/>
  <e1Detector index="35" id="e1det_-4243035#1_0" lane="-4243035#1_0" pos="1.0" freq="3600" file="DetectorOutput.xml" friendlyPos="true"/>
  <e1Detector index="36" id="e1det_62383930#0_0" lane="62383930#0_0" pos="1.0" freq="3600" file="DetectorOutput.xml" friendlyPos="true"/>
  <e1Detector index="37" id="e1det_127809159#3_0" lane="127809159#3_0" pos="1.0" freq="3600" file="DetectorOutput.xml" friendlyPos="true"/>
  <e1Detector index="38" id="e1det_-36730362#1_0" lane="-36730362#1_0" pos="1.0" freq="3600" file="DetectorOutput.xml" friendlyPos="true"/>
  <e1Detector index="39" id="e1det_-4247500#2_0" lane="-4247500#2_0" pos="1.0" freq="3600" file="DetectorOutput.xml" friendlyPos="true"/>
  <e1Detector index="40" id="e1det_-122886922#2_0" lane="-122886922#2_0" pos="1.0" freq="3600" file="DetectorOutput.xml" friendlyPos="true"/>
  <e1Detector index="41" id="e1det_129300233#0_0" lane="129300233#0_0" pos="1.0" freq="3600" file="DetectorOutput.xml" friendlyPos="true"/>
  <e1Detector index="42" id="e1det_15240373#2_0" lane="15240373#2_0" pos="1.0" freq="3600" file="DetectorOutput.xml" friendlyPos="true"/>
  <e1Detector index="43" id="e1det_75621805_0" lane="75621805_0" pos="1.0" freq="3600" file="DetectorOutput.xml" friendlyPos="true"/>
  <e1Detector index="44" id="e1det_-197339886_0" lane="-197339886_0" pos="1.0" freq="3600" file="DetectorOutput.xml" friendlyPos="true"/>
  <e1Detector index="45" id="e1det_62384086#1_0" lane="62384086#1_0" pos="1.0" freq="3600" file="DetectorOutput.xml" friendlyPos="true"/>
  <e1Detector index="46" id="e1det_75510897#1_0" lane="75510897#1_0" pos="1.0" freq="3600" file="DetectorOutput.xml" friendlyPos="true"/>
  <e1Detector index="47" id="e1det_4247500#1_0" lane="4247500#1_0" pos="1.0" freq="3600" file="DetectorOutput.xml" friendlyPos="true"/>
  <e1Detector index="48" id="e1det_-15240373#2_0" lane="-15240373#2_0" pos="1.0" freq="3600" file="DetectorOutput.xml" friendlyPos="true"/>
  <e1Detector index="49" id="e1det_42919366#0_0" lane="42919366#0_0" pos="1.0" freq="3600" file="DetectorOutput.xml" friendlyPos="true"/>
  <e1Detector index="50" id="e1det_-76333545_0" lane="-76333545_0" pos="1.0" freq="3600" file="DetectorOutput.xml" friendlyPos="true"/>
  <e1Detector index="51" id="e1det_-76334539#2_0" lane="-76334539#2_0" pos="1.0" freq="3600" file="DetectorOutput.xml" friendlyPos="true"/>
  <e1Detector index="52" id="e1det_62212961#1_0" lane="62212961#1_0" pos="1.0" freq="3600" file="DetectorOutput.xml" friendlyPos="true"/>
  <e1Detector index="53" id="e1det_123911189#2_0" lane="123911189#2_0" pos="1.0" freq="3600" file="DetectorOutput.xml" friendlyPos="true"/>
  <e1Detector index="54" id="e1det_18385008#2_0" lane="18385008#2_0" pos="1.0" freq="3600" file="DetectorOutput.xml" friendlyPos="true"/>
  <e1Detector index="55" id="e1det_186631612#0_0" lane="186631612#0_0" pos="1.0" freq="3600" file="DetectorOutput.xml" friendlyPos="true"/>
  <e1Detector index="56" id="e1det_-193116150_0" lane="-193116150_0" pos="1.0" freq="3600" file="DetectorOutput.xml" friendlyPos="true"/>
  <e1Detector index="57" id="e1det_21081120#4_0" lane="21081120#4_0" pos="1.0" freq="3600" file="DetectorOutput.xml" friendlyPos="true"/>
  <e1Detector index="58" id="e1det_-317000781#0_0" lane="-317000781#0_0" pos="1.0" freq="3600" file="DetectorOutput.xml" friendlyPos="true"/>
  <e1Detector index="59" id="e1det_-126902357#0_0" lane="-126902357#0_0" pos="1.0" freq="3600" file="DetectorOutput.xml" friendlyPos="true"/>
  <e1Detector index="60" id="e1det_76334539#1_0" lane="76334539#1_0" pos="1.0" freq="3600" file="DetectorOutput.xml" friendlyPos="true"/>
  <e1Detector index="61" id="e1det_37287289#1_0" lane="37287289#1_0" pos="1.0" freq="3600" file="DetectorOutput.xml" friendlyPos="true"/>
  <e1Detector index="62" id="e1det_-28842830#0_0" lane="-28842830#0_0" pos="1.0" freq="3600" file="DetectorOutput.xml" friendlyPos="true"/>
  <e1Detector index="63" id="e1det_114557572_0" lane="114557572_0" pos="1.0" freq="3600" file="DetectorOutput.xml" friendlyPos="true"/>
  <e1Detector index="64" id="e1det_-244282080#0_0" lane="-244282080#0_0" pos="1.0" freq="3600" file="DetectorOutput.xml" friendlyPos="true"/>
  <e1Detector index="65" id="e1det_28842837#2_0" lane="28842837#2_0" pos="1.0" freq="3600" file="DetectorOutput.xml" friendlyPos="true"/>
  <e1Detector index="66" id="e1det_37265518#3_0" lane="37265518#3_0" pos="1.0" freq="3600" file="DetectorOutput.xml" friendlyPos="true"/>
  <e1Detector index="67" id="e1det_244282080#0_0" lane="244282080#0_0" pos="1.0" freq="3600" file="DetectorOutput.xml" friendlyPos="true"/>
  <e1Detector index="68" id="e1det_60753078#0_0" lane="60753078#0_0" pos="1.0" freq="3600" file="DetectorOutput.xml" friendlyPos="true"/>
  <e1Detector index="69" id="e1det_62384627#3_0" lane="62384627#3_0" pos="1.0" freq="3600" file="DetectorOutput.xml" friendlyPos="true"/>
  <e1Detector index="70" id="e1det_-219090534#0_0" lane="-219090534#0_0" pos="1.0" freq="3600" file="DetectorOutput.xml" friendlyPos="true"/>
  <e1Detector index="71" id="e1det_-257702155#3_0" lane="-257702155#3_0" pos="1.0" freq="3600" file="DetectorOutput.xml" friendlyPos="true"/>
  <e1Detector index="72" id="e1det_28656022#1_0" lane="28656022#1_0" pos="1.0" freq="3600" file="DetectorOutput.xml" friendlyPos="true"/>
  <e1Detector index="73" id="e1det_28656019#0_0" lane="28656019#0_0" pos="1.0" freq="3600" file="DetectorOutput.xml" friendlyPos="true"/>
  <e1Detector index="74" id="e1det_36729035#2_0" lane="36729035#2_0" pos="1.0" freq="3600" file="DetectorOutput.xml" friendlyPos="true"/>
  <e1Detector index="75" id="e1det_-28656019#1_0" lane="-28656019#1_0" pos="1.0" freq="3600" file="DetectorOutput.xml" friendlyPos="true"/>
  <e1Detector index="76" id="e1det_28656019#3_0" lane="28656019#3_0" pos="1.0" freq="3600" file="DetectorOutput.xml" friendlyPos="true"/>
  <e1Detector index="77" id="e1det_193139549_0" lane="193139549_0" pos="1.0" freq="3600" file="DetectorOutput.xml" friendlyPos="true"/>
  <e1Detector index="78" id="e1det_317000781#0_0" lane="317000781#0_0" pos="1.0" freq="3600" file="DetectorOutput.xml" friendlyPos="true"/>
  <e1Detector index="79" id="e1det_-344789092#1_0" lane="-344789092#1_0" pos="1.0" freq="3600" file="DetectorOutput.xml" friendlyPos="true"/>
  <e1Detector index="80" id="e1det_-29186154#2_0" lane="-29186154#2_0" pos="1.0" freq="3600" file="DetectorOutput.xml" friendlyPos="true"/>
  <e1Detector index="81" id="e1det_36726220#0_0" lane="36726220#0_0" pos="1.0" freq="3600" file="DetectorOutput.xml" friendlyPos="true"/>
  <e1Detector index="82" id="e1det_-62200559#0_0" lane="-62200559#0_0" pos="1.0" freq="3600" file="DetectorOutput.xml" friendlyPos="true"/>
  <e1Detector index="83" id="e1det_80727847#0_0" lane="80727847#0_0" pos="1.0" freq="3600" file="DetectorOutput.xml" friendlyPos="true"/>
  <e1Detector index="84" id="e1det_85247849_0" lane="85247849_0" pos="1.0" freq="3600" file="DetectorOutput.xml" friendlyPos="true"/>
  <e1Detector index="85" id="e1det_-70957866_0" lane="-70957866_0" pos="1.0" freq="3600" file="DetectorOutput.xml" friendlyPos="true"/>
  <e1Detector index="86" id="e1det_85247774#0_0" lane="85247774#0_0" pos="1.0" freq="3600" file="DetectorOutput.xml" friendlyPos="true"/>
  <e1Detector index="87" id="e1det_-18385008#3_0" lane="-18385008#3_0" pos="1.0" freq="3600" file="DetectorOutput.xml" friendlyPos="true"/>
  <e1Detector index="88" id="e1det_-62212961#1_0" lane="-62212961#1_0" pos="1.0" freq="3600" file="DetectorOutput.xml" friendlyPos="true"/>
  <e1Detector index="89" id="e1det_97129664_0" lane="97129664_0" pos="1.0" freq="3600" file="DetectorOutput.xml" friendlyPos="true"/>
  <e1Detector index="90" id="e1det_316590746#0_0" lane="316590746#0_0" pos="1.0" freq="3600" file="DetectorOutput.xml" friendlyPos="true"/>
  <e1Detector index="91" id="e1det_126902357#0_0" lane="126902357#0_0" pos="1.0" freq="3600" file="DetectorOutput.xml" friendlyPos="true"/>
  <e1Detector index="92" id="e1det_-333061566_0" lane="-333061566_0" pos="1.0" freq="3600" file="DetectorOutput.xml" friendlyPos="true"/>
  <e1Detector index="93" id="e1det_62213052#0_0" lane="62213052#0_0" pos="1.0" freq="3600" file="DetectorOutput.xml" friendlyPos="true"/>
  <e1Detector index="94" id="e1det_-80727847#1_0" lane="-80727847#1_0" pos="1.0" freq="3600" file="DetectorOutput.xml" friendlyPos="true"/>
  <e1Detector index="95" id="e1det_333061572#1_0" lane="333061572#1_0" pos="1.0" freq="3600" file="DetectorOutput.xml" friendlyPos="true"/>
  <e1Detector index="96" id="e1det_-333061569_0" lane="-333061569_0" pos="1.0" freq="3600" file="DetectorOutput.xml" friendlyPos="true"/>
  <e1Detector index="97" id="e1det_81527791#0_0" lane="81527791#0_0" pos="1.0" freq="3600" file="DetectorOutput.xml" friendlyPos="true"/>
  <e1Detector index="98" id="e1det_9776916#1_0" lane="9776916#1_0" pos="1.0" freq="3600" file="DetectorOutput.xml" friendlyPos="true"/>
  <e1Detector index="99" id="e1det_193146008#1_0" lane="193146008#1_0" pos="1.0" freq="3600" file="DetectorOutput.xml" friendlyPos="true"/>
  <e1Detector index="100" id="e1det_-74307862_0" lane="-74307862_0" pos="1.0" freq="3600" file="DetectorOutput.xml" friendlyPos="true"/>
  <e1Detector index="101" id="e1det_-114557572_0" lane="-114557572_0" pos="1.0" freq="3600" file="DetectorOutput.xml" friendlyPos="true"/>
  <e1Detector index="102" id="e1det_342534666#2_0" lane="342534666#2_0" pos="1.0" freq="3600" file="DetectorOutput.xml" friendlyPos="true"/>
  <e1Detector index="103" id="e1det_-342534666#3_0" lane="-342534666#3_0" pos="1.0" freq="3600" file="DetectorOutput.xml" friendlyPos="true"/>
  <e1Detector index="104" id="e1det_342717761_0" lane="342717761_0" pos="1.0" freq="3600" file="DetectorOutput.xml" friendlyPos="true"/>
  <e1Detector index="105" id="e1det_324204703_0" lane="324204703_0" pos="1.0" freq="3600" file="DetectorOutput.xml" friendlyPos="true"/>
  <e1Detector index="106" id="e1det_36726221#2_0" lane="36726221#2_0" pos="1.0" freq="3600" file="DetectorOutput.xml" friendlyPos="true"/>
  <e1Detector index="107" id="e1det_-36726220#0_0" lane="-36726220#0_0" pos="1.0" freq="3600" file="DetectorOutput.xml" friendlyPos="true"/>
  <e1Detector index="108" id="e1det_80727850#0_0" lane="80727850#0_0" pos="1.0" freq="3600" file="DetectorOutput.xml" friendlyPos="true"/>
  <e1Detector index="109" id="e1det_234001132_0" lane="234001132_0" pos="1.0" freq="3600" file="DetectorOutput.xml" friendlyPos="true"/>
  <e1Detector index="110" id="e1det_-62213052#1_0" lane="-62213052#1_0" pos="1.0" freq="3600" file="DetectorOutput.xml" friendlyPos="true"/>
  <e1Detector index="111" id="e1det_76333545_0" lane="76333545_0" pos="1.0" freq="3600" file="DetectorOutput.xml" friendlyPos="true"/>
  <e1Detector index="112" id="e1det_332402669#2_0" lane="332402669#2_0" pos="1.0" freq="3600" file="DetectorOutput.xml" friendlyPos="true"/>
  <e1Detector index="113" id="e1det_-332402667_0" lane="-332402667_0" pos="1.0" freq="3600" file="DetectorOutput.xml" friendlyPos="true"/>
  <e1Detector index="114" id="e1det_62200559#0_0" lane="62200559#0_0" pos="1.0" freq="3600" file="DetectorOutput.xml" friendlyPos="true"/>
  <e1Detector index="115" id="e1det_233567130_0" lane="233567130_0" pos="1.0" freq="3600" file="DetectorOutput.xml" friendlyPos="true"/>
  <e1Detector index="116" id="e1det_-36729013#2_0" lane="-36729013#2_0" pos="1.0" freq="3600" file="DetectorOutput.xml" friendlyPos="true"/>
  <e1Detector index="117" id="e1det_42333034_0" lane="42333034_0" pos="1.0" freq="3600" file="DetectorOutput.xml" friendlyPos="true"/>
  <e1Detector index="118" id="e1det_-386781413_0" lane="-386781413_0" pos="1.0" freq="3600" file="DetectorOutput.xml" friendlyPos="true"/>
  <e1Detector index="119" id="e1det_36729033#1_0" lane="36729033#1_0" pos="1.0" freq="3600" file="DetectorOutput.xml" friendlyPos="true"/>
  <e1Detector index="120" id="e1det_81924137#0_0" lane="81924137#0_0" pos="1.0" freq="3600" file="DetectorOutput.xml" friendlyPos="true"/>
  <e1Detector index="121" id="e1det_-42333035_0" lane="-42333035_0" pos="1.0" freq="3600" file="DetectorOutput.xml" friendlyPos="true"/>
  <e1Detector index="122" id="e1det_-54818682#1_0" lane="-54818682#1_0" pos="1.0" freq="3600" file="DetectorOutput.xml" friendlyPos="true"/>
  <e1Detector index="123" id="e1det_54818681#2_0" lane="54818681#2_0" pos="1.0" freq="3600" file="DetectorOutput.xml" friendlyPos="true"/>
  <e1Detector index="124" id="e1det_-80715861#2_0" lane="-80715861#2_0" pos="1.0" freq="3600" file="DetectorOutput.xml" friendlyPos="true"/>
  <e1Detector index="125" id="e1det_70957866_0" lane="70957866_0" pos="1.0" freq="3600" file="DetectorOutput.xml" friendlyPos="true"/>
  <e1Detector index="126" id="e1det_-36729036#1_0" lane="-36729036#1_0" pos="1.0" freq="3600" file="DetectorOutput.xml" friendlyPos="true"/>
  <e1Detector index="127" id="e1det_-75621805_0" lane="-75621805_0" pos="1.0" freq="3600" file="DetectorOutput.xml" friendlyPos="true"/>
  <e1Detector index="128" id="e1det_-60753078#1_0" lane="-60753078#1_0" pos="1.0" freq="3600" file="DetectorOutput.xml" friendlyPos="true"/>
  <e1Detector index="129" id="e1det_60754207_0" lane="60754207_0" pos="1.0" freq="3600" file="DetectorOutput.xml" friendlyPos="true"/>
  <e1Detector index="130" id="e1det_81152599#3_0" lane="81152599#3_0" pos="1.0" freq="3600" file="DetectorOutput.xml" friendlyPos="true"/>
  <e1Detector index="131" id="e1det_-127809159#3_0" lane="-127809159#3_0" pos="1.0" freq="3600" file="DetectorOutput.xml" friendlyPos="true"/>
  <e1Detector index="132" id="e1det_-36730336#0_0" lane="-36730336#0_0" pos="1.0" freq="3600" file="DetectorOutput.xml" friendlyPos="true"/>
  <e1Detector index="133" id="e1det_36730332#4_0" lane="36730332#4_0" pos="1.0" freq="3600" file="DetectorOutput.xml" friendlyPos="true"/>
  <e1Detector index="134" id="e1det_75384668_0" lane="75384668_0" pos="1.0" freq="3600" file="DetectorOutput.xml" friendlyPos="true"/>
  <e1Detector index="135" id="e1det_36730362#0_0" lane="36730362#0_0" pos="1.0" freq="3600" file="DetectorOutput.xml" friendlyPos="true"/>
  <e1Detector index="136" id="e1det_155367884_0" lane="155367884_0" pos="1.0" freq="3600" file="DetectorOutput.xml" friendlyPos="true"/>
  <e1Detector index="137" id="e1det_4243035#1_0" lane="4243035#1_0" pos="1.0" freq="3600" file="DetectorOutput.xml" friendlyPos="true"/>
  <e1Detector index="138" id="e1det_8014829#6_0" lane="8014829#6_0" pos="1.0" freq="3600" file="DetectorOutput.xml" friendlyPos="true"/>
  <e1Detector index="139" id="e1det_-342717761_0" lane="-342717761_0" pos="1.0" freq="3600" file="DetectorOutput.xml" friendlyPos="true"/>
  <e1Detector index="140" id="e1det_8014829#9_0" lane="8014829#9_0" pos="1.0" freq="3600" file="DetectorOutput.xml" friendlyPos="true"/>
  <e1Detector index="141" id="e1det_-81924145#3_0" lane="-81924145#3_0" pos="1.0" freq="3600" file="DetectorOutput.xml" friendlyPos="true"/>
  <e1Detector index="142" id="e1det_234101647#0_0" lane="234101647#0_0" pos="1.0" freq="3600" file="DetectorOutput.xml" friendlyPos="true"/>
  <e1Detector index="143" id="e1det_29186154#2_0" lane="29186154#2_0" pos="1.0" freq="3600" file="DetectorOutput.xml" friendlyPos="true"/>
  <e1Detector index="144" id="e1det_-114554802#7_0" lane="-114554802#7_0" pos="1.0" freq="3600" file="DetectorOutput.xml" friendlyPos="true"/>
  <e1Detector index="145" id="e1det_-37498324_0" lane="-37498324_0" pos="1.0" freq="3600" file="DetectorOutput.xml" friendlyPos="true"/>
  <e1Detector index="146" id="e1det_81152595#2_0" lane="81152595#2_0" pos="1.0" freq="3600" file="DetectorOutput.xml" friendlyPos="true"/>
  <e1Detector index="147" id="e1det_-81152597_0" lane="-81152597_0" pos="1.0" freq="3600" file="DetectorOutput.xml" friendlyPos="true"/>
  <e1Detector index="148" id="e1det_37498324_0" lane="37498324_0" pos="1.0" freq="3600" file="DetectorOutput.xml" friendlyPos="true"/>
  <e1Detector index="149" id="e1det_15245452#0_0" lane="15245452#0_0" pos="1.0" freq="3600" file="DetectorOutput.xml" friendlyPos="true"/>
  <e1Detector index="150" id="e1det_-37265518#4_0" lane="-37265518#4_0" pos="1.0" freq="3600" file="DetectorOutput.xml" friendlyPos="true"/>
  <e1Detector index="151" id="e1det_74307860#0_0" lane="74307860#0_0" pos="1.0" freq="3600" file="DetectorOutput.xml" friendlyPos="true"/>
  <e1Detector index="152" id="e1det_4243036#3_0" lane="4243036#3_0" pos="1.0" freq="3600" file="DetectorOutput.xml" friendlyPos="true"/>
  <e1Detector index="153" id="e1det_-36730332#5_0" lane="-36730332#5_0" pos="1.0" freq="3600" file="DetectorOutput.xml" friendlyPos="true"/>
  <e1Detector index="154" id="e1det_-4243036#4_0" lane="-4243036#4_0" pos="1.0" freq="3600" file="DetectorOutput.xml" friendlyPos="true"/>
  <e1Detector index="155" id="e1det_257702155#2_0" lane="257702155#2_0" pos="1.0" freq="3600" file="DetectorOutput.xml" friendlyPos="true"/>
  <e1Detector index="156" id="e1det_76336872#0_0" lane="76336872#0_0" pos="1.0" freq="3600" file="DetectorOutput.xml" friendlyPos="true"/>
  <e1Detector index="157" id="e1det_-42919366#1_0" lane="-42919366#1_0" pos="1.0" freq="3600" file="DetectorOutput.xml" friendlyPos="true"/>
  <e1Detector index="158" id="e1det_25361336_0" lane="25361336_0" pos="1.0" freq="3600" file="DetectorOutput.xml" friendlyPos="true"/>
  <e1Detector index="159" id="e1det_193116150_0" lane="193116150_0" pos="1.0" freq="3600" file="DetectorOutput.xml" friendlyPos="true"/>
  <e1Detector index="160" id="e1det_52656372#1_0" lane="52656372#1_0" pos="1.0" freq="3600" file="DetectorOutput.xml" friendlyPos="true"/>
  <e1Detector index="161" id="e1det_114555485#1_0" lane="114555485#1_0" pos="1.0" freq="3600" file="DetectorOutput.xml" friendlyPos="true"/>
  <e1Detector index="162" id="e1det_333061564_0" lane="333061564_0" pos="1.0" freq="3600" file="DetectorOutput.xml" friendlyPos="true"/>
  <e1Detector index="163" id="e1det_-81527791#1_0" lane="-81527791#1_0" pos="1.0" freq="3600" file="DetectorOutput.xml" friendlyPos="true"/>
  <e1Detector index="164" id="e1det_-123412755#1_0" lane="-123412755#1_0" pos="1.0" freq="3600" file="DetectorOutput.xml" friendlyPos="true"/>
  <e1Detector index="165" id="e1det_-60738729#0_0" lane="-60738729#0_0" pos="1.0" freq="3600" file="DetectorOutput.xml" friendlyPos="true"/>
  <e1Detector index="166" id="e1det_-60754207_0" lane="-60754207_0" pos="1.0" freq="3600" file="DetectorOutput.xml" friendlyPos="true"/>
  <e1Detector index="167" id="e1det_81241338_0" lane="81241338_0" pos="1.0" freq="3600" file="DetectorOutput.xml" friendlyPos="true"/>
  <e1Detector index="168" id="e1det_260944338_0" lane="260944338_0" pos="1.0" freq="3600" file="DetectorOutput.xml" friendlyPos="true"/>
  <e1Detector index="169" id="e1det_62382877_0" lane="62382877_0" pos="1.0" freq="3600" file="DetectorOutput.xml" friendlyPos="true"/>
  <e1Detector index="170" id="e1det_-81241338_0" lane="-81241338_0" pos="1.0" freq="3600" file="DetectorOutput.xml" friendlyPos="true"/>
  <e1Detector index="171" id="e1det_-62384627#3_0" lane="-62384627#3_0" pos="1.0" freq="3600" file="DetectorOutput.xml" friendlyPos="true"/>
  <e1Detector index="172" id="e1det_62383932#2_0" lane="62383932#2_0" pos="1.0" freq="3600" file="DetectorOutput.xml" friendlyPos="true"/>
  <e1Detector index="173" id="e1det_-62383930#0_0" lane="-62383930#0_0" pos="1.0" freq="3600" file="DetectorOutput.xml" friendlyPos="true"/>
  <e1Detector index="174" id="e1det_-62384086#2_0" lane="-62384086#2_0" pos="1.0" freq="3600" file="DetectorOutput.xml" friendlyPos="true"/>
  <e1Detector index="175" id="e1det_74307844_0" lane="74307844_0" pos="1.0" freq="3600" file="DetectorOutput.xml" friendlyPos="true"/>
  <e1Detector index="176" id="e1det_-75384672_0" lane="-75384672_0" pos="1.0" freq="3600" file="DetectorOutput.xml" friendlyPos="true"/>
  <e1Detector index="177" id="e1det_77615449_0" lane="77615449_0" pos="1.0" freq="3600" file="DetectorOutput.xml" friendlyPos="true"/>
  <e1Detector index="178" id="e1det_-77647468#2_0" lane="-77647468#2_0" pos="1.0" freq="3600" file="DetectorOutput.xml" friendlyPos="true"/>
  <e1Detector index="179" id="e1det_81924137#2_0" lane="81924137#2_0" pos="1.0" freq="3600" file="DetectorOutput.xml" friendlyPos="true"/>
  <e1Detector index="180" id="e1det_-77893340_0" lane="-77893340_0" pos="1.0" freq="3600" file="DetectorOutput.xml" friendlyPos="true"/>
  <e1Detector index="181" id="e1det_-81924137#0_0" lane="-81924137#0_0" pos="1.0" freq="3600" file="DetectorOutput.xml" friendlyPos="true"/>
  <e1Detector index="182" id="e1det_54818682#0_0" lane="54818682#0_0" pos="1.0" freq="3600" file="DetectorOutput.xml" friendlyPos="true"/>
  <e1Detector index="183" id="e1det_-77893334#1_0" lane="-77893334#1_0" pos="1.0" freq="3600" file="DetectorOutput.xml" friendlyPos="true"/>
  <e1Detector index="184" id="e1det_77893335_0" lane="77893335_0" pos="1.0" freq="3600" file="DetectorOutput.xml" friendlyPos="true"/>
  <e1Detector index="185" id="e1det_-85247774#1_0" lane="-85247774#1_0" pos="1.0" freq="3600" file="DetectorOutput.xml" friendlyPos="true"/>
  <e1Detector index="186" id="e1det_85248832#0_0" lane="85248832#0_0" pos="1.0" freq="3600" file="DetectorOutput.xml" friendlyPos="true"/>
  <e1Detector index="187" id="e1det_80715861#1_0" lane="80715861#1_0" pos="1.0" freq="3600" file="DetectorOutput.xml" friendlyPos="true"/>
  <e1Detector index="188" id="e1det_-80715863#3_0" lane="-80715863#3_0" pos="1.0" freq="3600" file="DetectorOutput.xml" friendlyPos="true"/>
  <e1Detector index="189" id="e1det_123899996#2_0" lane="123899996#2_0" pos="1.0" freq="3600" file="DetectorOutput.xml" friendlyPos="true"/>
  <e1Detector index="190" id="e1det_-80715855#3_0" lane="-80715855#3_0" pos="1.0" freq="3600" file="DetectorOutput.xml" friendlyPos="true"/>
  <e1Detector index="191" id="e1det_80715863#3_0" lane="80715863#3_0" pos="1.0" freq="3600" file="DetectorOutput.xml" friendlyPos="true"/>
  <e1Detector index="192" id="e1det_80715865#0_0" lane="80715865#0_0" pos="1.0" freq="3600" file="DetectorOutput.xml" friendlyPos="true"/>
  <e1Detector index="193" id="e1det_80715855#2_0" lane="80715855#2_0" pos="1.0" freq="3600" file="DetectorOutput.xml" friendlyPos="true"/>
  <e1Detector index="194" id="e1det_-80715865#1_0" lane="-80715865#1_0" pos="1.0" freq="3600" file="DetectorOutput.xml" friendlyPos="true"/>
  <e1Detector index="195" id="e1det_-81152595#2_0" lane="-81152595#2_0" pos="1.0" freq="3600" file="DetectorOutput.xml" friendlyPos="true"/>
  <e1Detector index="196" id="e1det_-123635329#1_0" lane="-123635329#1_0" pos="1.0" freq="3600" file="DetectorOutput.xml" friendlyPos="true"/>
  <e1Detector index="197" id="e1det_81924145#2_0" lane="81924145#2_0" pos="1.0" freq="3600" file="DetectorOutput.xml" friendlyPos="true"/>
  <e1Detector index="198" id="e1det_344789092#1_0" lane="344789092#1_0" pos="1.0" freq="3600" file="DetectorOutput.xml" friendlyPos="true"/>
  <e1Detector index="199" id="e1det_-81924137#2_0" lane="-81924137#2_0" pos="1.0" freq="3600" file="DetectorOutput.xml" friendlyPos="true"/>
  <e1Detector index="200" id="e1det_82410887_0" lane="82410887_0" pos="1.0" freq="3600" file="DetectorOutput.xml" friendlyPos="true"/>
  <e1Detector index="201" id="e1det_-97129661#0_0" lane="-97129661#0_0" pos="1.0" freq="3600" file="DetectorOutput.xml" friendlyPos="true"/>
  <e1Detector index="202" id="e1det_-9776916#1_0" lane="-9776916#1_0" pos="1.0" freq="3600" file="DetectorOutput.xml" friendlyPos="true"/>
  <e1Detector index="203" id="e1det_114555281#1_0" lane="114555281#1_0" pos="1.0" freq="3600" file="DetectorOutput.xml" friendlyPos="true"/>
  <e1Detector index="204" id="e1det_114554786#2_0" lane="114554786#2_0" pos="1.0" freq="3600" file="DetectorOutput.xml" friendlyPos="true"/>
  <e1Detector index="205" id="e1det_324204707#2_0" lane="324204707#2_0" pos="1.0" freq="3600" file="DetectorOutput.xml" friendlyPos="true"/>
  <e1Detector index="206" id="e1det_28408345#1_0" lane="28408345#1_0" pos="1.0" freq="3600" file="DetectorOutput.xml" friendlyPos="true"/>
  <e1Detector index="207" id="e1det_114555767#2_0" lane="114555767#2_0" pos="1.0" freq="3600" file="DetectorOutput.xml" friendlyPos="true"/>
  <e1Detector index="208" id="e1det_195828017#5_0" lane="195828017#5_0" pos="1.0" freq="3600" file="DetectorOutput.xml" friendlyPos="true"/>
  <e1Detector index="209" id="e1det_193134986#0_0" lane="193134986#0_0" pos="1.0" freq="3600" file="DetectorOutput.xml" friendlyPos="true"/>
  <e1Detector index="210" id="e1det_81527019#1_0" lane="81527019#1_0" pos="1.0" freq="3600" file="DetectorOutput.xml" friendlyPos="true"/>
  <e1Detector index="211" id="e1det_25522292_0" lane="25522292_0" pos="1.0" freq="3600" file="DetectorOutput.xml" friendlyPos="true"/>
  <e1Detector index="212" id="e1det_122964115#1_0" lane="122964115#1_0" pos="1.0" freq="3600" file="DetectorOutput.xml" friendlyPos="true"/>
  <e1Detector index="213" id="e1det_30602647_0" lane="30602647_0" pos="1.0" freq="3600" file="DetectorOutput.xml" friendlyPos="true"/>
  <e1Detector index="214" id="e1det_187794587_0" lane="187794587_0" pos="1.0" freq="3600" file="DetectorOutput.xml" friendlyPos="true"/>