<?xml version="1.0" encoding="UTF-8"?>

<!-- generated on 10/13/22 10:13:02 by Eclipse SUMO netedit Version 1.7.0
<configuration xmlns:xsi="http://www.w3.org/2001/XMLSchema-instance" xsi:noNamespaceSchemaLocation="http://sumo.dlr.de/xsd/netconvertConfiguration.xsd">

    <input>
        <sumo-net-file value="C:\Users\wenca\Desktop\sumo_20vehicles\helsinki.net.xml"/>
    </input>

    <output>
        <output-file value="C:\Users\wenca\Desktop\sumo_20vehicles\helsinki.net.xml"/>
    </output>

    <processing>
        <geometry.min-radius.fix.railways value="false"/>
        <geometry.max-grade.fix value="false"/>
        <offset.disable-normalization value="true"/>
        <lefthand value="false"/>
    </processing>

    <junctions>
        <no-turnarounds value="true"/>
        <junctions.corner-detail value="5"/>
        <junctions.limit-turn-speed value="5.5"/>
        <rectangular-lane-cut value="false"/>
    </junctions>

    <pedestrian>
        <walkingareas value="false"/>
    </pedestrian>

    <report>
        <aggregate-warnings value="5"/>
    </report>

</configuration>
-->

<net version="1.6" junctionCornerDetail="5" limitTurnSpeed="5.50" xmlns:xsi="http://www.w3.org/2001/XMLSchema-instance" xsi:noNamespaceSchemaLocation="http://sumo.dlr.de/xsd/net_file.xsd">

    <location netOffset="-385174.69,-6671039.23" convBoundary="0.00,0.00,1135.02,1149.85" origBoundary="24.914235,60.156132,24.966609,60.189319" projParameter="+proj=utm +zone=35 +ellps=WGS84 +datum=WGS84 +units=m +no_defs"/>

    <type id="highway.bridleway" priority="1" numLanes="1" speed="2.78" allow="pedestrian" oneway="1" width="2.00"/>
    <type id="highway.bus_guideway" priority="1" numLanes="1" speed="27.78" allow="bus" oneway="1"/>
    <type id="highway.cycleway" priority="1" numLanes="1" speed="8.33" allow="bicycle" oneway="0" width="1.00"/>
    <type id="highway.footway" priority="1" numLanes="1" speed="2.78" allow="pedestrian" oneway="1" width="2.00"/>
    <type id="highway.ford" priority="1" numLanes="1" speed="2.78" allow="army" oneway="0"/>
    <type id="highway.living_street" priority="2" numLanes="1" speed="2.78" disallow="tram rail_urban rail rail_electric rail_fast ship" oneway="0"/>
    <type id="highway.motorway" priority="14" numLanes="2" speed="39.44" allow="private emergency authority army vip passenger hov taxi bus coach delivery truck trailer motorcycle evehicle custom1 custom2" oneway="1"/>
    <type id="highway.motorway_link" priority="9" numLanes="1" speed="22.22" allow="private emergency authority army vip passenger hov taxi bus coach delivery truck trailer motorcycle evehicle custom1 custom2" oneway="1"/>
    <type id="highway.path" priority="1" numLanes="1" speed="2.78" allow="pedestrian bicycle" oneway="0" width="2.00"/>
    <type id="highway.pedestrian" priority="1" numLanes="1" speed="2.78" allow="pedestrian" oneway="1" width="2.00"/>
    <type id="highway.primary" priority="12" numLanes="2" speed="27.78" disallow="tram rail_urban rail rail_electric rail_fast ship" oneway="0"/>
    <type id="highway.primary_link" priority="7" numLanes="1" speed="22.22" disallow="tram rail_urban rail rail_electric rail_fast ship" oneway="0"/>
    <type id="highway.raceway" priority="15" numLanes="2" speed="83.33" allow="vip" oneway="0"/>
    <type id="highway.residential" priority="3" numLanes="1" speed="13.89" disallow="tram rail_urban rail rail_electric rail_fast ship" oneway="0"/>
    <type id="highway.secondary" priority="11" numLanes="1" speed="27.78" disallow="tram rail_urban rail rail_electric rail_fast ship" oneway="0"/>
    <type id="highway.secondary_link" priority="6" numLanes="1" speed="22.22" disallow="tram rail_urban rail rail_electric rail_fast ship" oneway="0"/>
    <type id="highway.service" priority="1" numLanes="1" speed="5.56" allow="pedestrian delivery bicycle" oneway="0"/>
    <type id="highway.stairs" priority="1" numLanes="1" speed="1.39" allow="pedestrian" oneway="1" width="2.00"/>
    <type id="highway.step" priority="1" numLanes="1" speed="1.39" allow="pedestrian" oneway="1" width="2.00"/>
    <type id="highway.steps" priority="1" numLanes="1" speed="1.39" allow="pedestrian" oneway="1" width="2.00"/>
    <type id="highway.tertiary" priority="10" numLanes="1" speed="22.22" disallow="tram rail_urban rail rail_electric rail_fast ship" oneway="0"/>
    <type id="highway.tertiary_link" priority="5" numLanes="1" speed="22.22" disallow="tram rail_urban rail rail_electric rail_fast ship" oneway="0"/>
    <type id="highway.track" priority="1" numLanes="1" speed="5.56" allow="pedestrian motorcycle moped bicycle" oneway="0"/>
    <type id="highway.trunk" priority="13" numLanes="2" speed="27.78" disallow="pedestrian bicycle tram rail_urban rail rail_electric rail_fast ship" oneway="0"/>
    <type id="highway.trunk_link" priority="8" numLanes="1" speed="22.22" disallow="pedestrian bicycle tram rail_urban rail rail_electric rail_fast ship" oneway="0"/>
    <type id="highway.unclassified" priority="4" numLanes="1" speed="13.89" disallow="tram rail_urban rail rail_electric rail_fast ship" oneway="0"/>
    <type id="highway.unsurfaced" priority="1" numLanes="1" speed="8.33" disallow="tram rail_urban rail rail_electric rail_fast ship" oneway="0"/>
    <type id="railway.highspeed" priority="21" numLanes="1" speed="69.44" allow="rail_fast" oneway="1"/>
    <type id="railway.light_rail" priority="19" numLanes="1" speed="27.78" allow="rail_urban" oneway="1"/>
    <type id="railway.preserved" priority="16" numLanes="1" speed="27.78" allow="rail" oneway="1"/>
    <type id="railway.rail" priority="20" numLanes="1" speed="44.44" allow="rail" oneway="1"/>
    <type id="railway.subway" priority="18" numLanes="1" speed="27.78" allow="rail_urban" oneway="1"/>
    <type id="railway.tram" priority="17" numLanes="1" speed="13.89" allow="tram" oneway="1"/>

    <edge id=":1003627114_0" function="internal">
        <lane id=":1003627114_0_0" index="0" disallow="tram rail_urban rail rail_electric rail_fast ship" speed="8.33" length="0.30" shape="944.97,611.15 944.96,611.45"/>
    </edge>
    <edge id=":1003627114_1" function="internal">
        <lane id=":1003627114_1_0" index="0" disallow="tram rail_urban rail rail_electric rail_fast ship" speed="8.33" length="0.30" shape="941.77,611.35 941.78,611.05"/>
    </edge>
    <edge id=":1004552381_0" function="internal">
        <lane id=":1004552381_0_0" index="0" disallow="tram rail_urban rail rail_electric rail_fast ship" speed="8.33" length="1.65" shape="692.96,696.76 692.01,698.12"/>
    </edge>
    <edge id=":1004552577_0" function="internal">
        <lane id=":1004552577_0_0" index="0" disallow="tram rail_urban rail rail_electric rail_fast ship" speed="8.33" length="1.45" shape="698.14,696.94 697.14,695.89"/>
    </edge>
    <edge id=":1005429216_0" function="internal">
        <lane id=":1005429216_0_0" index="0" disallow="tram rail_urban rail rail_electric rail_fast ship" speed="8.33" length="0.17" shape="1054.65,361.94 1054.65,361.77"/>
    </edge>
    <edge id=":1005429216_1" function="internal">
        <lane id=":1005429216_1_0" index="0" disallow="tram rail_urban rail rail_electric rail_fast ship" speed="8.33" length="0.17" shape="1051.45,361.71 1051.45,361.88"/>
    </edge>
    <edge id=":1005473142_0" function="internal">
        <lane id=":1005473142_0_0" index="0" disallow="tram rail_urban rail rail_electric rail_fast ship" speed="8.33" length="0.30" shape="857.87,277.87 857.57,277.85"/>
    </edge>
    <edge id=":1005473202_0" function="internal">
        <lane id=":1005473202_0_0" index="0" disallow="tram rail_urban rail rail_electric rail_fast ship" speed="8.33" length="1.23" shape="848.71,281.64 848.90,280.42"/>
    </edge>
    <edge id=":1005473289_0" function="internal">
        <lane id=":1005473289_0_0" index="0" disallow="tram rail_urban rail rail_electric rail_fast ship" speed="8.33" length="0.30" shape="842.21,277.57 841.91,277.57"/>
    </edge>
    <edge id=":1005473391_0" function="internal">
        <lane id=":1005473391_0_0" index="0" disallow="tram rail_urban rail rail_electric rail_fast ship" speed="8.33" length="0.30" shape="863.04,72.98 863.34,72.98"/>
    </edge>
    <edge id=":1005526387_0" function="internal">
        <lane id=":1005526387_0_0" index="0" disallow="tram rail_urban rail rail_electric rail_fast ship" speed="8.33" length="0.30" shape="946.76,75.36 947.06,75.36"/>
    </edge>
    <edge id=":1005526433_0" function="internal">
        <lane id=":1005526433_0_0" index="0" disallow="tram rail_urban rail rail_electric rail_fast ship" speed="8.33" length="3.14" shape="732.96,438.03 734.69,435.41"/>
    </edge>
    <edge id=":1005526433_1" function="internal">
        <lane id=":1005526433_1_0" index="0" disallow="tram rail_urban rail rail_electric rail_fast ship" speed="8.33" length="3.15" shape="732.02,433.64 730.29,436.27"/>
    </edge>
    <edge id=":1005526490_0" function="internal">
        <lane id=":1005526490_0_0" index="0" disallow="tram rail_urban rail rail_electric rail_fast ship" speed="8.33" length="8.73" shape="743.48,429.67 741.13,429.90 739.10,430.61 737.39,431.78 736.01,433.42"/>
    </edge>
    <edge id=":1005526490_1" function="internal">
        <lane id=":1005526490_1_0" index="0" disallow="tram rail_urban rail rail_electric rail_fast ship" speed="6.87" length="14.78" shape="743.48,429.67 740.04,429.00 738.62,426.97 739.20,423.60 741.80,418.88"/>
    </edge>
    <edge id=":1005526490_2" function="internal">
        <lane id=":1005526490_2_0" index="0" disallow="tram rail_urban rail rail_electric rail_fast ship" speed="3.65" length="4.67" shape="743.48,429.67 742.28,428.87 741.88,428.07 742.28,427.27 743.48,426.47"/>
    </edge>
    <edge id=":1005526490_3" function="internal">
        <lane id=":1005526490_3_0" index="0" disallow="tram rail_urban rail rail_electric rail_fast ship" speed="5.00" length="7.09" shape="744.46,420.65 742.94,423.20 742.27,425.02 742.45,426.11 743.48,426.47"/>
    </edge>
    <edge id=":1005526490_4" function="internal">
        <lane id=":1005526490_4_0" index="0" disallow="tram rail_urban rail rail_electric rail_fast ship" speed="8.33" length="15.31" shape="744.46,420.65 736.01,433.42"/>
    </edge>
    <edge id=":1005526490_5" function="internal">
        <lane id=":1005526490_5_0" index="0" disallow="tram rail_urban rail rail_electric rail_fast ship" speed="3.65" length="4.67" shape="744.46,420.65 743.13,421.21 742.24,421.10 741.80,420.32 741.80,418.88"/>
    </edge>
    <edge id=":1005526490_6" function="internal">
        <lane id=":1005526490_6_0" index="0" disallow="tram rail_urban rail rail_electric rail_fast ship" speed="8.33" length="15.35" shape="733.33,431.67 741.80,418.88"/>
    </edge>
    <edge id=":1005526490_7" function="internal">
        <lane id=":1005526490_7_0" index="0" disallow="tram rail_urban rail rail_electric rail_fast ship" speed="8.33" length="11.91" shape="733.33,431.67 735.24,429.40 737.56,427.77 740.31,426.80 743.48,426.47"/>
    </edge>
    <edge id=":1005526490_8" function="internal">
        <lane id=":1005526490_8_0" index="0" disallow="tram rail_urban rail rail_electric rail_fast ship" speed="3.65" length="4.67" shape="733.33,431.67 734.65,431.11 735.54,431.21 735.99,431.98 736.01,433.42"/>
    </edge>
    <edge id=":1007051486_0" function="internal">
        <lane id=":1007051486_0_0" index="0" disallow="tram rail_urban rail rail_electric rail_fast ship" speed="8.33" length="0.31" shape="854.91,335.62 854.60,335.61"/>
    </edge>
    <edge id=":1007051486_1" function="internal">
        <lane id=":1007051486_1_0" index="0" disallow="tram rail_urban rail rail_electric rail_fast ship" speed="8.33" length="0.28" shape="854.74,332.41 855.03,332.43"/>
    </edge>
    <edge id=":1007051492_0" function="internal">
        <lane id=":1007051492_0_0" index="0" disallow="tram rail_urban rail rail_electric rail_fast ship" speed="8.33" length="1.29" shape="646.27,194.96 646.04,194.65 645.90,194.43 645.79,194.20 645.64,193.84"/>
    </edge>
    <edge id=":1007051492_1" function="internal">
        <lane id=":1007051492_1_0" index="0" disallow="tram rail_urban rail rail_electric rail_fast ship" speed="8.33" length="0.43" shape="648.62,192.68 648.67,192.79 648.71,192.87 648.75,192.95 648.83,193.05"/>
    </edge>
    <edge id=":1007051629_0" function="internal">
        <lane id=":1007051629_0_0" index="0" disallow="tram rail_urban rail rail_electric rail_fast ship" speed="8.33" length="1.04" shape="851.50,335.53 852.54,335.55"/>
    </edge>
    <edge id=":1007051629_1" function="internal">
        <lane id=":1007051629_1_0" index="0" disallow="tram rail_urban rail rail_electric rail_fast ship" speed="8.33" length="1.06" shape="852.59,332.35 851.54,332.33"/>
    </edge>
    <edge id=":1007824351_0" function="internal">
        <lane id=":1007824351_0_0" index="0" disallow="tram rail_urban rail rail_electric rail_fast ship" speed="8.33" length="0.30" shape="111.59,312.67 111.33,312.50"/>
    </edge>
    <edge id=":1007824351_1" function="internal">
        <lane id=":1007824351_1_0" index="0" disallow="tram rail_urban rail rail_electric rail_fast ship" speed="8.33" length="0.30" shape="113.10,309.83 113.34,309.99"/>
    </edge>
    <edge id=":1007824554_0" function="internal">
        <lane id=":1007824554_0_0" index="0" disallow="tram rail_urban rail rail_electric rail_fast ship" speed="8.33" length="3.71" shape="125.13,321.56 122.03,319.52"/>
    </edge>
    <edge id=":1007824554_1" function="internal">
        <lane id=":1007824554_1_0" index="0" disallow="tram rail_urban rail rail_electric rail_fast ship" speed="8.33" length="3.71" shape="123.78,316.85 126.88,318.88"/>
    </edge>
    <edge id=":1011088523_0" function="internal">
        <lane id=":1011088523_0_0" index="0" disallow="tram rail_urban rail rail_electric rail_fast ship" speed="8.33" length="0.18" shape="632.74,127.60 632.68,127.43"/>
    </edge>
    <edge id=":1011088523_1" function="internal">
        <lane id=":1011088523_1_0" index="0" disallow="tram rail_urban rail rail_electric rail_fast ship" speed="8.33" length="0.29" shape="635.69,126.34 635.79,126.62"/>
    </edge>
    <edge id=":1011256640_0" function="internal">
        <lane id=":1011256640_0_0" index="0" disallow="tram rail_urban rail rail_electric rail_fast ship" speed="8.33" length="0.30" shape="511.94,201.86 511.78,202.11"/>
        <lane id=":1011256640_0_1" index="1" disallow="tram rail_urban rail rail_electric rail_fast ship" speed="8.33" length="0.30" shape="509.27,200.11 509.10,200.36"/>
    </edge>
    <edge id=":1011256666_0" function="internal">
        <lane id=":1011256666_0_0" index="0" disallow="tram rail_urban rail rail_electric rail_fast ship" speed="8.33" length="0.30" shape="592.65,78.88 592.49,79.14"/>
        <lane id=":1011256666_0_1" index="1" disallow="tram rail_urban rail rail_electric rail_fast ship" speed="8.33" length="0.30" shape="589.97,77.15 589.81,77.39"/>
    </edge>
    <edge id=":1011256677_0" function="internal">
        <lane id=":1011256677_0_0" index="0" disallow="tram rail_urban rail rail_electric rail_fast ship" speed="8.33" length="0.30" shape="529.47,175.16 529.31,175.41"/>
        <lane id=":1011256677_0_1" index="1" disallow="tram rail_urban rail rail_electric rail_fast ship" speed="8.33" length="0.30" shape="526.79,173.41 526.63,173.66"/>
    </edge>
    <edge id=":1011415132_0" function="internal">
        <lane id=":1011415132_0_0" index="0" disallow="tram rail_urban rail rail_electric rail_fast ship" speed="8.33" length="0.21" shape="347.10,455.00 346.92,455.26"/>
        <lane id=":1011415132_0_1" index="1" disallow="tram rail_urban rail rail_electric rail_fast ship" speed="8.33" length="0.21" shape="344.39,453.30 344.33,453.39"/>
    </edge>
    <edge id=":1011463184_0" function="internal">
        <lane id=":1011463184_0_0" index="0" disallow="tram rail_urban rail rail_electric rail_fast ship" speed="8.33" length="0.15" shape="672.03,549.87 671.90,549.79"/>
    </edge>
    <edge id=":1011463184_1" function="internal">
        <lane id=":1011463184_1_0" index="0" disallow="tram rail_urban rail rail_electric rail_fast ship" speed="8.33" length="0.15" shape="675.22,544.32 675.35,544.40"/>
        <lane id=":1011463184_1_1" index="1" disallow="tram rail_urban rail rail_electric rail_fast ship" speed="8.33" length="0.15" shape="673.56,547.05 673.69,547.13"/>
    </edge>
    <edge id=":1012497956_0" function="internal">
        <lane id=":1012497956_0_0" index="0" disallow="tram rail_urban rail rail_electric rail_fast ship" speed="8.33" length="0.30" shape="1043.59,851.61 1043.59,851.91"/>
    </edge>
    <edge id=":1012497956_1" function="internal">
        <lane id=":1012497956_1_0" index="0" disallow="tram rail_urban rail rail_electric rail_fast ship" speed="8.33" length="0.30" shape="1040.39,851.81 1040.40,851.51"/>
    </edge>
    <edge id=":1012497968_0" function="internal">
        <lane id=":1012497968_0_0" index="0" disallow="tram rail_urban rail rail_electric rail_fast ship" speed="8.33" length="0.29" shape="1043.43,856.87 1043.43,857.16"/>
    </edge>
    <edge id=":1012497968_1" function="internal">
        <lane id=":1012497968_1_0" index="0" disallow="tram rail_urban rail rail_electric rail_fast ship" speed="8.33" length="0.31" shape="1040.23,857.08 1040.24,856.77"/>
    </edge>
    <edge id=":1013224876_0" function="internal">
        <lane id=":1013224876_0_0" index="0" disallow="tram rail_urban rail rail_electric rail_fast ship" speed="8.33" length="0.30" shape="78.20,290.75 77.95,290.58"/>
    </edge>
    <edge id=":1013224876_1" function="internal">
        <lane id=":1013224876_1_0" index="0" disallow="tram rail_urban rail rail_electric rail_fast ship" speed="8.33" length="0.29" shape="79.70,287.91 79.95,288.07"/>
    </edge>
    <edge id=":1125194694_0" function="internal">
        <lane id=":1125194694_0_0" index="0" disallow="tram rail_urban rail rail_electric rail_fast ship" speed="8.33" length="0.10" shape="703.39,482.68 703.39,482.68"/>
    </edge>
    <edge id=":1125194694_1" function="internal">
        <lane id=":1125194694_1_0" index="0" disallow="tram rail_urban rail rail_electric rail_fast ship" speed="8.33" length="0.10" shape="700.69,480.96 700.69,480.96"/>
    </edge>
    <edge id=":1125194699_0" function="internal">
        <lane id=":1125194699_0_0" index="0" disallow="tram rail_urban rail rail_electric rail_fast ship" speed="8.33" length="0.30" shape="673.00,530.21 672.84,530.46"/>
    </edge>
    <edge id=":1125194699_1" function="internal">
        <lane id=":1125194699_1_0" index="0" disallow="tram rail_urban rail rail_electric rail_fast ship" speed="8.33" length="0.30" shape="670.14,528.73 670.30,528.48"/>
    </edge>
    <edge id=":1137435462_0" function="internal">
        <lane id=":1137435462_0_0" index="0" disallow="tram rail_urban rail rail_electric rail_fast ship" speed="8.33" length="0.10" shape="637.96,584.16 637.96,584.16"/>
    </edge>
    <edge id=":1137435462_1" function="internal">
        <lane id=":1137435462_1_0" index="0" disallow="tram rail_urban rail rail_electric rail_fast ship" speed="8.33" length="0.10" shape="635.28,582.42 635.28,582.42"/>
    </edge>
    <edge id=":1156114391_0" function="internal">
        <lane id=":1156114391_0_0" index="0" disallow="tram rail_urban rail rail_electric rail_fast ship" speed="8.33" length="0.29" shape="824.36,825.82 824.09,825.82"/>
        <lane id=":1156114391_0_1" index="1" disallow="tram rail_urban rail rail_electric rail_fast ship" speed="8.33" length="0.29" shape="824.43,822.62 824.12,822.62"/>
    </edge>
    <edge id=":1156114393_0" function="internal">
        <lane id=":1156114393_0_0" index="0" disallow="tram rail_urban rail rail_electric rail_fast ship" speed="8.33" length="0.30" shape="766.73,825.07 766.43,825.07"/>
        <lane id=":1156114393_0_1" index="1" disallow="tram rail_urban rail rail_electric rail_fast ship" speed="8.33" length="0.30" shape="766.77,821.87 766.47,821.87"/>
    </edge>
    <edge id=":1297403614_0" function="internal">
        <lane id=":1297403614_0_0" index="0" disallow="tram rail_urban rail rail_electric rail_fast ship" speed="3.65" length="4.67" shape="53.47,564.99 52.91,563.67 53.02,562.78 53.79,562.33 55.23,562.33"/>
    </edge>
    <edge id=":1297403622_0" function="internal">
        <lane id=":1297403622_0_0" index="0" disallow="tram rail_urban rail rail_electric rail_fast ship" speed="8.33" length="0.30" shape="107.47,503.77 107.64,503.51"/>
        <lane id=":1297403622_0_1" index="1" disallow="tram rail_urban rail rail_electric rail_fast ship" speed="8.33" length="0.30" shape="110.14,505.52 110.31,505.27"/>
    </edge>
    <edge id=":1297403637_0" function="internal">
        <lane id=":1297403637_0_0" index="0" disallow="tram rail_urban rail rail_electric rail_fast ship" speed="8.33" length="0.30" shape="112.64,495.92 112.81,495.67"/>
        <lane id=":1297403637_0_1" index="1" disallow="tram rail_urban rail rail_electric rail_fast ship" speed="8.33" length="0.30" shape="115.31,497.68 115.48,497.42"/>
    </edge>
    <edge id=":1297407672_0" function="internal">
        <lane id=":1297407672_0_0" index="0" disallow="tram rail_urban rail rail_electric rail_fast ship" speed="8.33" length="0.30" shape="126.12,475.04 126.27,474.80"/>
        <lane id=":1297407672_0_1" index="1" disallow="tram rail_urban rail rail_electric rail_fast ship" speed="8.33" length="0.30" shape="128.80,476.79 128.97,476.53"/>
    </edge>
    <edge id=":1297407675_0" function="internal">
        <lane id=":1297407675_0_0" index="0" disallow="tram rail_urban rail rail_electric rail_fast ship" speed="8.33" length="0.30" shape="147.41,441.94 147.58,441.69"/>
        <lane id=":1297407675_0_1" index="1" disallow="tram rail_urban rail rail_electric rail_fast ship" speed="8.33" length="0.30" shape="150.10,443.67 150.27,443.42"/>
    </edge>
    <edge id=":1297407676_0" function="internal">
        <lane id=":1297407676_0_0" index="0" disallow="tram rail_urban rail rail_electric rail_fast ship" speed="8.33" length="0.30" shape="137.17,457.85 137.34,457.60"/>
        <lane id=":1297407676_0_1" index="1" disallow="tram rail_urban rail rail_electric rail_fast ship" speed="8.33" length="0.30" shape="139.86,459.58 140.03,459.33"/>
    </edge>
    <edge id=":1297407679_0" function="internal">
        <lane id=":1297407679_0_0" index="0" disallow="tram rail_urban rail rail_electric rail_fast ship" speed="8.33" length="0.30" shape="167.27,411.21 167.43,410.96"/>
        <lane id=":1297407679_0_1" index="1" disallow="tram rail_urban rail rail_electric rail_fast ship" speed="8.33" length="0.30" shape="169.94,412.96 170.11,412.71"/>
    </edge>
    <edge id=":1297410874_0" function="internal">
        <lane id=":1297410874_0_0" index="0" disallow="tram rail_urban rail rail_electric rail_fast ship" speed="8.33" length="0.10" shape="247.46,288.33 247.46,288.33"/>
        <lane id=":1297410874_0_1" index="1" disallow="tram rail_urban rail rail_electric rail_fast ship" speed="8.33" length="0.10" shape="250.14,290.07 250.14,290.07"/>
    </edge>
    <edge id=":1297410876_0" function="internal">
        <lane id=":1297410876_0_0" index="0" disallow="tram rail_urban rail rail_electric rail_fast ship" speed="8.33" length="0.30" shape="240.71,298.67 240.87,298.42"/>
        <lane id=":1297410876_0_1" index="1" disallow="tram rail_urban rail rail_electric rail_fast ship" speed="8.33" length="0.30" shape="243.39,300.42 243.55,300.17"/>
    </edge>
    <edge id=":1297410878_0" function="internal">
        <lane id=":1297410878_0_0" index="0" disallow="tram rail_urban rail rail_electric rail_fast ship" speed="8.33" length="0.10" shape="224.19,323.96 224.19,323.96"/>
        <lane id=":1297410878_0_1" index="1" disallow="tram rail_urban rail rail_electric rail_fast ship" speed="8.33" length="0.10" shape="226.87,325.72 226.87,325.72"/>
    </edge>
    <edge id=":1297416468_0" function="internal">
        <lane id=":1297416468_0_0" index="0" disallow="tram rail_urban rail rail_electric rail_fast ship" speed="8.33" length="0.30" shape="338.63,150.03 338.79,149.78"/>
    </edge>
    <edge id=":1297416470_0" function="internal">
        <lane id=":1297416470_0_0" index="0" disallow="tram rail_urban rail rail_electric rail_fast ship" speed="8.33" length="0.30" shape="319.91,178.81 320.07,178.55"/>
    </edge>
    <edge id=":1297416471_0" function="internal">
        <lane id=":1297416471_0_0" index="0" disallow="tram rail_urban rail rail_electric rail_fast ship" speed="8.33" length="0.30" shape="345.49,139.69 345.65,139.44"/>
    </edge>
    <edge id=":1297416474_0" function="internal">
        <lane id=":1297416474_0_0" index="0" disallow="tram rail_urban rail rail_electric rail_fast ship" speed="8.33" length="0.30" shape="276.67,245.68 276.83,245.44"/>
    </edge>
    <edge id=":1297416476_0" function="internal">
        <lane id=":1297416476_0_0" index="0" disallow="tram rail_urban rail rail_electric rail_fast ship" speed="8.33" length="0.10" shape="363.22,112.94 363.22,112.94"/>
    </edge>
    <edge id=":1297416477_0" function="internal">
        <lane id=":1297416477_0_0" index="0" disallow="tram rail_urban rail rail_electric rail_fast ship" speed="8.33" length="0.30" shape="332.69,158.99 332.85,158.75"/>
    </edge>
    <edge id=":1297423829_0" function="internal">
        <lane id=":1297423829_0_0" index="0" disallow="tram rail_urban rail rail_electric rail_fast ship" speed="8.33" length="0.10" shape="377.31,92.46 377.31,92.46"/>
    </edge>
    <edge id=":1297428261_0" function="internal">
        <lane id=":1297428261_0_0" index="0" disallow="tram rail_urban rail rail_electric rail_fast ship" speed="3.65" length="4.67" shape="612.22,77.08 612.50,75.67 613.09,74.99 613.98,75.05 615.18,75.86"/>
    </edge>
    <edge id=":1371748756_0" function="internal">
        <lane id=":1371748756_0_0" index="0" disallow="tram rail_urban rail rail_electric rail_fast ship" speed="3.65" length="4.67" shape="49.21,901.78 48.76,900.41 48.95,899.54 49.76,899.16 51.19,899.28"/>
    </edge>
    <edge id=":1371750094_0" function="internal">
        <lane id=":1371750094_0_0" index="0" disallow="tram rail_urban rail rail_electric rail_fast ship" speed="7.48" length="11.05" shape="109.55,825.16 106.46,823.96 103.79,823.78 101.52,824.62 99.66,826.48"/>
    </edge>
    <edge id=":1371750094_1" function="internal">
        <lane id=":1371750094_1_0" index="0" disallow="tram rail_urban rail rail_electric rail_fast ship" speed="8.33" length="13.93" shape="109.55,825.16 97.25,818.62"/>
    </edge>
    <edge id=":1371750094_2" function="internal">
        <lane id=":1371750094_2_0" index="0" disallow="tram rail_urban rail rail_electric rail_fast ship" speed="3.65" length="4.67" shape="109.55,825.16 108.86,823.90 108.87,823.00 109.60,822.48 111.03,822.32"/>
    </edge>
    <edge id=":1371750094_3" function="internal">
        <lane id=":1371750094_3_0" index="0" disallow="tram rail_urban rail rail_electric rail_fast ship" speed="6.04" length="8.39" shape="109.37,815.40 108.30,817.49 108.22,819.35 109.13,820.96 111.03,822.32"/>
    </edge>
    <edge id=":1371750094_4" function="internal">
        <lane id=":1371750094_4_0" index="0" disallow="tram rail_urban rail rail_electric rail_fast ship" speed="8.33" length="14.76" shape="109.37,815.40 106.47,819.09 104.00,821.66 101.78,823.86 99.66,826.48"/>
    </edge>
    <edge id=":1371750094_5" function="internal">
        <lane id=":1371750094_5_0" index="0" disallow="tram rail_urban rail rail_electric rail_fast ship" speed="7.66" length="11.77" shape="106.75,813.56 104.21,816.65 101.77,818.52 99.45,819.18 97.25,818.62"/>
    </edge>
    <edge id=":1371750094_6" function="internal">
        <lane id=":1371750094_6_0" index="0" disallow="tram rail_urban rail rail_electric rail_fast ship" speed="8.33" length="13.88" shape="98.77,815.81 111.03,822.32"/>
    </edge>
    <edge id=":1371750094_7" function="internal">
        <lane id=":1371750094_7_0" index="0" disallow="tram rail_urban rail rail_electric rail_fast ship" speed="7.25" length="12.45" shape="98.77,815.81 101.09,817.71 102.01,820.12 101.53,823.04 99.66,826.48"/>
    </edge>
    <edge id=":1371750094_8" function="internal">
        <lane id=":1371750094_8_0" index="0" disallow="tram rail_urban rail rail_electric rail_fast ship" speed="3.65" length="4.67" shape="98.77,815.81 99.45,817.09 99.42,817.98 98.68,818.49 97.25,818.62"/>
    </edge>
    <edge id=":1371750095_0" function="internal">
        <lane id=":1371750095_0_0" index="0" disallow="tram rail_urban rail rail_electric rail_fast ship" speed="6.53" length="9.03" shape="303.71,808.89 302.71,811.15 302.67,813.20 303.58,815.03 305.46,816.64"/>
    </edge>
    <edge id=":1371750095_1" function="internal">
        <lane id=":1371750095_1_0" index="0" disallow="tram rail_urban rail rail_electric rail_fast ship" speed="8.33" length="11.45" shape="303.71,808.89 297.48,818.50"/>
    </edge>
    <edge id=":1371750095_2" function="internal">
        <lane id=":1371750095_2_0" index="0" disallow="tram rail_urban rail rail_electric rail_fast ship" speed="7.38" length="11.55" shape="303.71,808.89 301.97,810.67 299.66,811.34 296.80,810.88 293.37,809.32"/>
    </edge>
    <edge id=":1371750095_3" function="internal">
        <lane id=":1371750095_3_0" index="0" disallow="tram rail_urban rail rail_electric rail_fast ship" speed="3.65" length="4.67" shape="303.71,808.89 302.39,809.49 301.50,809.40 301.04,808.64 300.99,807.20"/>
    </edge>
    <edge id=":1371750095_4" function="internal">
        <lane id=":1371750095_4_0" index="0" disallow="tram rail_urban rail rail_electric rail_fast ship" speed="6.26" length="8.74" shape="294.82,816.72 295.93,814.48 296.05,812.50 295.20,810.78 293.37,809.32"/>
    </edge>
    <edge id=":1371750095_5" function="internal">