<?xml version="1.0" encoding="UTF-8"?>

<!-- generated on 09/26/22 15:22:55 by Eclipse SUMO netconvert Version 1.7.0
<configuration xmlns:xsi="http://www.w3.org/2001/XMLSchema-instance" xsi:noNamespaceSchemaLocation="http://sumo.dlr.de/xsd/netconvertConfiguration.xsd">

    <input>
        <sumo-net-file value="helsinki.net.xml"/>
    </input>

    <output>
        <plain-output-prefix value="plain"/>
    </output>

    <processing>
        <geometry.min-radius.fix.railways value="false"/>
        <geometry.max-grade.fix value="false"/>
        <offset.disable-normalization value="true"/>
        <lefthand value="false"/>
    </processing>

    <junctions>
        <no-turnarounds value="true"/>
        <junctions.corner-detail value="5"/>
        <junctions.limit-turn-speed value="5.5"/>
        <rectangular-lane-cut value="false"/>
    </junctions>

    <pedestrian>
        <walkingareas value="false"/>
    </pedestrian>

    <report>
        <aggregate-warnings value="5"/>
    </report>

</configuration>
-->

<edges version="1.6" xmlns:xsi="http://www.w3.org/2001/XMLSchema-instance" xsi:noNamespaceSchemaLocation="http://sumo.dlr.de/xsd/edges_file.xsd">
    <edge id="-114554802#0" from="3214939948" to="1297403614" priority="3" type="highway.residential" numLanes="1" speed="8.33" disallow="tram rail_urban rail rail_electric rail_fast ship"/>
    <edge id="-114554802#1" from="298368073" to="3214939948" priority="3" type="highway.residential" numLanes="1" speed="8.33" disallow="tram rail_urban rail rail_electric rail_fast ship"/>
    <edge id="-114554802#2" from="298368069" to="298368073" priority="3" type="highway.residential" numLanes="1" speed="8.33" shape="70.62,574.33 65.27,570.85 60.26,567.57" disallow="tram rail_urban rail rail_electric rail_fast ship"/>
    <edge id="-114554802#3" from="3214939950" to="298368069" priority="3" type="highway.residential" numLanes="1" speed="8.33" disallow="tram rail_urban rail rail_electric rail_fast ship"/>
    <edge id="-114554802#4" from="7702074848" to="3214939950" priority="3" type="highway.residential" numLanes="1" speed="8.33" disallow="tram rail_urban rail rail_electric rail_fast ship"/>
    <edge id="-114554802#5" from="4524911342" to="7702074848" priority="3" type="highway.residential" numLanes="1" speed="8.33" disallow="tram rail_urban rail rail_electric rail_fast ship"/>
    <edge id="-114554802#6" from="7698539437" to="4524911342" priority="3" type="highway.residential" numLanes="1" speed="8.33" disallow="tram rail_urban rail rail_electric rail_fast ship"/>
    <edge id="-114554802#7" from="7702074843" to="7698539437" priority="3" type="highway.residential" numLanes="1" speed="8.33" disallow="tram rail_urban rail rail_electric rail_fast ship"/>
    <edge id="-114554802#8" from="434551472" to="7702074843" priority="3" type="highway.residential" numLanes="1" speed="8.33" disallow="tram rail_urban rail rail_electric rail_fast ship"/>
    <edge id="-114557572" from="1380291042" to="3495146104" priority="3" type="highway.residential" numLanes="1" speed="8.33" shape="636.46,133.92 638.19,140.33 639.66,148.61 641.08,161.11" disallow="tram rail_urban rail rail_electric rail_fast ship"/>
    <edge id="-122886921#0" from="311747902" to="315285583" priority="10" type="highway.tertiary" numLanes="1" speed="8.33" disallow="tram rail_urban rail rail_electric rail_fast ship"/>
    <edge id="-122886921#1" from="2485284348" to="311747902" priority="10" type="highway.tertiary" numLanes="1" speed="8.33" disallow="tram rail_urban rail rail_electric rail_fast ship"/>
    <edge id="-122886921#2" from="1371750099" to="2485284348" priority="10" type="highway.tertiary" numLanes="1" speed="8.33" disallow="tram rail_urban rail rail_electric rail_fast ship"/>
    <edge id="-122886922#0" from="301360877" to="1371750094" priority="10" type="highway.tertiary" numLanes="1" speed="8.33" disallow="tram rail_urban rail rail_electric rail_fast ship"/>
    <edge id="-122886922#1" from="3216400387" to="301360877" priority="10" type="highway.tertiary" numLanes="1" speed="8.33" shape="117.26,828.12 113.93,826.03 110.19,823.69" disallow="tram rail_urban rail rail_electric rail_fast ship"/>
    <edge id="-122886922#2" from="1426836913" to="3216400387" priority="10" type="highway.tertiary" numLanes="1" speed="8.33" disallow="tram rail_urban rail rail_electric rail_fast ship"/>
    <edge id="-122949520#0" from="1372287165" to="1372260494" priority="3" type="highway.residential" numLanes="1" speed="8.33" disallow="tram rail_urban rail rail_electric rail_fast ship"/>
    <edge id="-122949520#1" from="7937196090" to="1372287165" priority="3" type="highway.residential" numLanes="1" speed="8.33" disallow="tram rail_urban rail rail_electric rail_fast ship"/>
    <edge id="-122949520#10" from="315385117" to="7676126821" priority="3" type="highway.residential" numLanes="1" speed="8.33" disallow="tram rail_urban rail rail_electric rail_fast ship"/>
    <edge id="-122949520#11" from="6488191698" to="315385117" priority="3" type="highway.residential" numLanes="1" speed="8.33" disallow="tram rail_urban rail rail_electric rail_fast ship"/>
    <edge id="-122949520#12" from="25291570" to="6488191698" priority="3" type="highway.residential" numLanes="1" speed="8.33" disallow="tram rail_urban rail rail_electric rail_fast ship"/>
    <edge id="-122949520#2" from="7669695391" to="7937196090" priority="3" type="highway.residential" numLanes="1" speed="8.33" disallow="tram rail_urban rail rail_electric rail_fast ship"/>
    <edge id="-122949520#3" from="7673624749" to="7669695391" priority="3" type="highway.residential" numLanes="1" speed="8.33" disallow="tram rail_urban rail rail_electric rail_fast ship"/>
    <edge id="-122949520#4" from="315385849" to="7673624749" priority="3" type="highway.residential" numLanes="1" speed="8.33" disallow="tram rail_urban rail rail_electric rail_fast ship"/>
    <edge id="-122949520#5" from="1372260497" to="315385849" priority="3" type="highway.residential" numLanes="1" speed="8.33" disallow="tram rail_urban rail rail_electric rail_fast ship"/>
    <edge id="-122949520#6" from="315385843" to="1372260497" priority="3" type="highway.residential" numLanes="1" speed="8.33" disallow="tram rail_urban rail rail_electric rail_fast ship"/>
    <edge id="-122949520#7" from="7676079946" to="315385843" priority="3" type="highway.residential" numLanes="1" speed="8.33" disallow="tram rail_urban rail rail_electric rail_fast ship"/>
    <edge id="-122949520#8" from="7676126812" to="7676079946" priority="3" type="highway.residential" numLanes="1" speed="8.33" disallow="tram rail_urban rail rail_electric rail_fast ship"/>
    <edge id="-122949520#9" from="7676126821" to="7676126812" priority="3" type="highway.residential" numLanes="1" speed="8.33" disallow="tram rail_urban rail rail_electric rail_fast ship"/>
    <edge id="-122949522#0" from="310063816" to="1372260494" priority="3" type="highway.residential" numLanes="1" speed="8.33" shape="295.24,59.17 287.09,72.09 262.80,110.58" disallow="tram rail_urban rail rail_electric rail_fast ship"/>
    <edge id="-122949522#1" from="1372260455" to="310063816" priority="3" type="highway.residential" numLanes="1" speed="8.33" disallow="tram rail_urban rail rail_electric rail_fast ship"/>
    <edge id="-122949524#0" from="310063909" to="1372260491" priority="3" type="highway.residential" numLanes="1" speed="8.33" disallow="tram rail_urban rail rail_electric rail_fast ship"/>
    <edge id="-122949524#1" from="1372260455" to="310063909" priority="3" type="highway.residential" numLanes="1" speed="8.33" shape="298.01,54.50 341.78,82.38 347.56,86.05 366.31,98.00" disallow="tram rail_urban rail rail_electric rail_fast ship"/>
    <edge id="-122949524#2" from="1372260450" to="1372260455" priority="3" type="highway.residential" numLanes="1" speed="8.33" disallow="tram rail_urban rail rail_electric rail_fast ship"/>
    <edge id="-122949524#3" from="607917519" to="1372260450" priority="3" type="highway.residential" numLanes="1" speed="8.33" shape="170.72,0.00 190.05,5.78 253.48,24.73 267.46,34.07 293.21,51.29" disallow="tram rail_urban rail rail_electric rail_fast ship"/>
    <edge id="-122950930" from="310148418" to="954733771" priority="3" type="highway.residential" numLanes="1" speed="8.33" disallow="tram rail_urban rail rail_electric rail_fast ship"/>
    <edge id="-122962417#0" from="301360155" to="1372441189" priority="3" type="highway.residential" numLanes="1" speed="8.33" disallow="tram rail_urban rail rail_electric rail_fast ship"/>
    <edge id="-122962417#1" from="1547012334" to="301360155" priority="3" type="highway.residential" numLanes="1" speed="8.33" disallow="tram rail_urban rail rail_electric rail_fast ship"/>
    <edge id="-123412755#0" from="311111203" to="1376344654" priority="3" type="highway.residential" numLanes="1" speed="8.33" disallow="tram rail_urban rail rail_electric rail_fast ship"/>
    <edge id="-123412755#1" from="742231099" to="311111203" priority="3" type="highway.residential" numLanes="1" speed="8.33" disallow="tram rail_urban rail rail_electric rail_fast ship"/>
    <edge id="-123635329#0" from="310984424" to="1377940920" priority="3" type="highway.residential" numLanes="1" speed="8.33" disallow="tram rail_urban rail rail_electric rail_fast ship"/>
    <edge id="-123635329#1" from="299980112" to="310984424" priority="3" type="highway.residential" numLanes="1" speed="8.33" disallow="tram rail_urban rail rail_electric rail_fast ship"/>
    <edge id="-123901490" from="1007051629" to="1380291085" priority="3" type="highway.residential" numLanes="1" speed="8.33" disallow="tram rail_urban rail rail_electric rail_fast ship"/>
    <edge id="-123905592" from="988554303" to="915595791" priority="3" type="highway.residential" numLanes="1" speed="8.33" disallow="tram rail_urban rail rail_electric rail_fast ship"/>
    <edge id="-126902357#0" from="7884134657" to="1405850873" priority="10" type="highway.tertiary" numLanes="1" speed="8.33" disallow="tram rail_urban rail rail_electric rail_fast ship"/>
    <edge id="-126902357#1" from="537519892" to="7884134657" priority="10" type="highway.tertiary" numLanes="1" speed="8.33" disallow="tram rail_urban rail rail_electric rail_fast ship"/>
    <edge id="-126902358" from="537519882" to="1405850868" priority="10" type="highway.tertiary" numLanes="1" speed="8.33" disallow="tram rail_urban rail rail_electric rail_fast ship"/>
    <edge id="-127104868#0" from="314935865" to="1380411607" priority="3" type="highway.residential" numLanes="1" speed="8.33" disallow="tram rail_urban rail rail_electric rail_fast ship"/>
    <edge id="-127104868#1" from="426911764" to="314935865" priority="3" type="highway.residential" numLanes="1" speed="8.33" disallow="tram rail_urban rail rail_electric rail_fast ship"/>
    <edge id="-127104874" from="311112501" to="25292451" priority="3" type="highway.residential" numLanes="1" speed="8.33" disallow="tram rail_urban rail rail_electric rail_fast ship"/>
    <edge id="-127809157" from="1413816275" to="1413816272" priority="4" type="highway.unclassified" numLanes="1" speed="8.33" disallow="tram rail_urban rail rail_electric rail_fast ship"/>
    <edge id="-127809159#0" from="1380974106" to="1413816275" priority="4" type="highway.unclassified" numLanes="1" speed="8.33" disallow="tram rail_urban rail rail_electric rail_fast ship"/>
    <edge id="-127809159#1" from="4435014128" to="1380974106" priority="4" type="highway.unclassified" numLanes="1" speed="8.33" disallow="tram rail_urban rail rail_electric rail_fast ship"/>
    <edge id="-127809159#2" from="189426849" to="4435014128" priority="4" type="highway.unclassified" numLanes="1" speed="8.33" disallow="tram rail_urban rail rail_electric rail_fast ship"/>
    <edge id="-127809159#3" from="324707765" to="189426849" priority="4" type="highway.unclassified" numLanes="1" speed="8.33" disallow="tram rail_urban rail rail_electric rail_fast ship"/>
    <edge id="-128171761" from="298372997" to="1416958253" priority="3" type="highway.residential" numLanes="1" speed="8.33" disallow="tram rail_urban rail rail_electric rail_fast ship"/>
    <edge id="-128562363" from="954733771" to="1420446379" priority="3" type="highway.residential" numLanes="1" speed="8.33" disallow="tram rail_urban rail rail_electric rail_fast ship"/>
    <edge id="-129300233#0" from="6339908473" to="1426836919" priority="10" type="highway.tertiary" numLanes="1" speed="8.33" disallow="tram rail_urban rail rail_electric rail_fast ship"/>
    <edge id="-129300233#1" from="1426836922" to="6339908473" priority="10" type="highway.tertiary" numLanes="1" speed="8.33" disallow="tram rail_urban rail rail_electric rail_fast ship"/>
    <edge id="-129300238#0" from="298137943" to="1426836922" priority="10" type="highway.tertiary" numLanes="1" speed="8.33" disallow="tram rail_urban rail rail_electric rail_fast ship"/>
    <edge id="-129300238#1" from="1371750099" to="298137943" priority="10" type="highway.tertiary" numLanes="1" speed="8.33" disallow="tram rail_urban rail rail_electric rail_fast ship"/>
    <edge id="-129300241#0" from="6339908478" to="1426836913" priority="10" type="highway.tertiary" numLanes="1" speed="8.33" disallow="tram rail_urban rail rail_electric rail_fast ship"/>
    <edge id="-129300241#1" from="150983569" to="6339908478" priority="10" type="highway.tertiary" numLanes="1" speed="8.33" disallow="tram rail_urban rail rail_electric rail_fast ship"/>
    <edge id="-129300241#2" from="1426836916" to="150983569" priority="10" type="highway.tertiary" numLanes="1" speed="8.33" disallow="tram rail_urban rail rail_electric rail_fast ship"/>
    <edge id="-129300244#0" from="1378036892" to="1426836916" priority="10" type="highway.tertiary" numLanes="1" speed="8.33" disallow="tram rail_urban rail rail_electric rail_fast ship"/>
    <edge id="-129300244#1" from="1426836919" to="1378036892" priority="10" type="highway.tertiary" numLanes="1" speed="8.33" disallow="tram rail_urban rail rail_electric rail_fast ship"/>
    <edge id="-134994760" from="892837532" to="1483296615" priority="3" type="highway.residential" numLanes="1" speed="8.33" disallow="tram rail_urban rail rail_electric rail_fast ship"/>
    <edge id="-134994771" from="299983608" to="760466578" priority="3" type="highway.residential" numLanes="1" speed="8.33" disallow="tram rail_urban rail rail_electric rail_fast ship"/>
    <edge id="-143057426#0" from="1012497968" to="277401793" priority="3" type="highway.residential" numLanes="1" speed="8.33" disallow="tram rail_urban rail rail_electric rail_fast ship"/>
    <edge id="-143057426#1" from="1012497956" to="1012497968" priority="3" type="highway.residential" numLanes="1" speed="8.33" shape="1041.99,851.71 1041.92,854.17 1041.83,856.97" disallow="tram rail_urban rail rail_electric rail_fast ship"/>
    <edge id="-143057427#0" from="314935869" to="1380411630" priority="3" type="highway.residential" numLanes="1" speed="8.33" disallow="tram rail_urban rail rail_electric rail_fast ship"/>
    <edge id="-143057427#1" from="878470744" to="314935869" priority="3" type="highway.residential" numLanes="1" speed="8.33" disallow="tram rail_urban rail rail_electric rail_fast ship"/>
    <edge id="-143057430" from="2665390692" to="310989244" priority="3" type="highway.residential" numLanes="1" speed="8.33" disallow="tram rail_urban rail rail_electric rail_fast ship"/>
    <edge id="-14472965#0" from="276385368" to="1380974104" priority="4" type="highway.unclassified" numLanes="1" speed="8.33" shape="815.74,1134.20 818.58,1130.45 820.70,1125.67 821.66,1121.80 822.20,1118.06 823.77,1065.27 823.87,1061.96 824.18,1058.70 824.55,1056.85" disallow="tram rail_urban rail rail_electric rail_fast ship"/>
    <edge id="-14472965#1" from="1936085683" to="276385368" priority="4" type="highway.unclassified" numLanes="1" speed="8.33" disallow="tram rail_urban rail rail_electric rail_fast ship"/>
    <edge id="-15240373#0" from="301360871" to="150983569" priority="3" type="highway.residential" numLanes="1" speed="8.33" disallow="tram rail_urban rail rail_electric rail_fast ship"/>
    <edge id="-15240373#1" from="7701337664" to="301360871" priority="3" type="highway.residential" numLanes="1" speed="8.33" shape="175.00,836.09 166.30,849.57 164.76,851.90" disallow="tram rail_urban rail rail_electric rail_fast ship"/>
    <edge id="-15240373#2" from="301360890" to="7701337664" priority="3" type="highway.residential" numLanes="1" speed="8.33" disallow="tram rail_urban rail rail_electric rail_fast ship"/>
    <edge id="-15240373#3" from="3216400389" to="301360890" priority="3" type="highway.residential" numLanes="1" speed="8.33" disallow="tram rail_urban rail rail_electric rail_fast ship"/>
    <edge id="-15240373#4" from="3216400385" to="3216400389" priority="3" type="highway.residential" numLanes="1" speed="8.33" disallow="tram rail_urban rail rail_electric rail_fast ship"/>
    <edge id="-15245482#0" from="6497762829" to="25291564" priority="3" type="highway.residential" numLanes="1" speed="8.33" disallow="tram rail_urban rail rail_electric rail_fast ship"/>
    <edge id="-15245482#1" from="292858659" to="6497762829" priority="3" type="highway.residential" numLanes="1" speed="8.33" disallow="tram rail_urban rail rail_electric rail_fast ship"/>
    <edge id="-15245482#2" from="313977367" to="292858659" priority="3" type="highway.residential" numLanes="1" speed="8.33" disallow="tram rail_urban rail rail_electric rail_fast ship"/>
    <edge id="-15245482#3" from="775996545" to="313977367" priority="3" type="highway.residential" numLanes="1" speed="8.33" disallow="tram rail_urban rail rail_electric rail_fast ship"/>
    <edge id="-18385008#0" from="7631766116" to="314935876" priority="12" type="highway.primary" numLanes="2" speed="8.33" disallow="tram rail_urban rail rail_electric rail_fast ship"/>
    <edge id="-18385008#1" from="3232054230" to="7631766116" priority="12" type="highway.primary" numLanes="2" speed="8.33" disallow="tram rail_urban rail rail_electric rail_fast ship"/>
    <edge id="-18385008#2" from="1011463184" to="3232054230" priority="12" type="highway.primary" numLanes="2" speed="8.33" disallow="tram rail_urban rail rail_electric rail_fast ship"/>
    <edge id="-18385008#3" from="315384664" to="1011463184" priority="12" type="highway.primary" numLanes="2" speed="8.33" disallow="tram rail_urban rail rail_electric rail_fast ship"/>
    <edge id="-186631612#0" from="301360158" to="1973747714" priority="3" type="highway.residential" numLanes="1" speed="8.33" disallow="tram rail_urban rail rail_electric rail_fast ship"/>
    <edge id="-186631612#1" from="1372441189" to="301360158" priority="3" type="highway.residential" numLanes="1" speed="8.33" disallow="tram rail_urban rail rail_electric rail_fast ship"/>
    <edge id="-186631612#2" from="4524927399" to="1372441189" priority="3" type="highway.residential" numLanes="1" speed="8.33" disallow="tram rail_urban rail rail_electric rail_fast ship"/>
    <edge id="-186631612#3" from="298372071" to="4524927399" priority="3" type="highway.residential" numLanes="1" speed="8.33" disallow="tram rail_urban rail rail_electric rail_fast ship"/>
    <edge id="-193116150" from="2036340756" to="2036340761" priority="4" type="highway.unclassified" numLanes="1" speed="8.33" disallow="tram rail_urban rail rail_electric rail_fast ship"/>
    <edge id="-193116151#0" from="6339908459" to="2036340756" priority="4" type="highway.unclassified" numLanes="1" speed="8.33" disallow="tram rail_urban rail rail_electric rail_fast ship"/>
    <edge id="-193116151#1" from="6339908461" to="6339908459" priority="4" type="highway.unclassified" numLanes="1" speed="8.33" disallow="tram rail_urban rail rail_electric rail_fast ship"/>
    <edge id="-193116151#2" from="313972555" to="6339908461" priority="4" type="highway.unclassified" numLanes="1" speed="8.33" disallow="tram rail_urban rail rail_electric rail_fast ship"/>
    <edge id="-193116151#3" from="1371748756" to="313972555" priority="4" type="highway.unclassified" numLanes="1" speed="8.33" disallow="tram rail_urban rail rail_electric rail_fast ship"/>
    <edge id="-197339886" from="2075922541" to="1003627114" priority="3" type="highway.residential" numLanes="1" speed="8.33" disallow="tram rail_urban rail rail_electric rail_fast ship"/>
    <edge id="-197339887#0" from="314935868" to="2075922541" priority="3" type="highway.residential" numLanes="1" speed="8.33" disallow="tram rail_urban rail rail_electric rail_fast ship"/>
    <edge id="-197339887#1" from="1380411630" to="314935868" priority="3" type="highway.residential" numLanes="1" speed="8.33" disallow="tram rail_urban rail rail_electric rail_fast ship"/>
    <edge id="-201293692" from="348216871" to="2112507858" priority="3" type="highway.residential" numLanes="1" speed="8.33" disallow="tram rail_urban rail rail_electric rail_fast ship"/>
    <edge id="-201293693#0" from="426926471" to="348216871" priority="3" type="highway.residential" numLanes="1" speed="8.33" disallow="tram rail_urban rail rail_electric rail_fast ship"/>
    <edge id="-201293693#1" from="2403530744" to="426926471" priority="3" type="highway.residential" numLanes="1" speed="8.33" disallow="tram rail_urban rail rail_electric rail_fast ship"/>
    <edge id="-21081120#0" from="6497762835" to="292858658" priority="3" type="highway.residential" numLanes="1" speed="8.33" disallow="tram rail_urban rail rail_electric rail_fast ship"/>
    <edge id="-21081120#1" from="25291565" to="6497762835" priority="3" type="highway.residential" numLanes="1" speed="8.33" disallow="tram rail_urban rail rail_electric rail_fast ship"/>
    <edge id="-21081120#2" from="6497762834" to="25291565" priority="3" type="highway.residential" numLanes="1" speed="8.33" disallow="tram rail_urban rail rail_electric rail_fast ship"/>
    <edge id="-21081120#3" from="292859324" to="6497762834" priority="3" type="highway.residential" numLanes="1" speed="8.33" disallow="tram rail_urban rail rail_electric rail_fast ship"/>
    <edge id="-21081120#4" from="3395239427" to="292859324" priority="3" type="highway.residential" numLanes="1" speed="8.33" disallow="tram rail_urban rail rail_electric rail_fast ship"/>
    <edge id="-217644146#0" from="311086402" to="2269494568" priority="10" type="highway.tertiary" numLanes="1" speed="8.33" disallow="tram rail_urban rail rail_electric rail_fast ship"/>
    <edge id="-217644146#1" from="25291564" to="311086402" priority="10" type="highway.tertiary" numLanes="1" speed="8.33" disallow="tram rail_urban rail rail_electric rail_fast ship"/>
    <edge id="-219090534#0" from="7643288437" to="2282947011" priority="3" type="highway.residential" numLanes="1" speed="8.33" disallow="tram rail_urban rail rail_electric rail_fast ship"/>
    <edge id="-219090534#1" from="779194553" to="7643288437" priority="3" type="highway.residential" numLanes="1" speed="8.33" disallow="tram rail_urban rail rail_electric rail_fast ship"/>
    <edge id="-23180033#0" from="320269798" to="250658253" priority="3" type="highway.residential" numLanes="1" speed="8.33" disallow="tram rail_urban rail rail_electric rail_fast ship"/>
    <edge id="-23180033#1" from="3495146104" to="320269798" priority="3" type="highway.residential" numLanes="1" speed="8.33" disallow="tram rail_urban rail rail_electric rail_fast ship"/>
    <edge id="-232008578" from="878470742" to="2403530744" priority="3" type="highway.residential" numLanes="1" speed="8.33" disallow="tram rail_urban rail rail_electric rail_fast ship"/>
    <edge id="-232042787" from="913243841" to="2403892462" priority="3" type="highway.residential" numLanes="1" speed="8.33" disallow="tram rail_urban rail rail_electric rail_fast ship"/>
    <edge id="-233999099" from="900132184" to="2423061066" priority="3" type="highway.residential" numLanes="1" speed="8.33" disallow="tram rail_urban rail rail_electric rail_fast ship"/>
    <edge id="-233999572#0" from="292859342" to="2423066851" priority="3" type="highway.residential" numLanes="1" speed="8.33" disallow="tram rail_urban rail rail_electric rail_fast ship"/>
    <edge id="-233999572#1" from="6497762830" to="292859342" priority="3" type="highway.residential" numLanes="1" speed="8.33" disallow="tram rail_urban rail rail_electric rail_fast ship"/>
    <edge id="-233999572#2" from="25291564" to="6497762830" priority="3" type="highway.residential" numLanes="1" speed="8.33" disallow="tram rail_urban rail rail_electric rail_fast ship"/>
    <edge id="-234000028" from="900132064" to="2423068780" priority="3" type="highway.residential" numLanes="1" speed="8.33" disallow="tram rail_urban rail rail_electric rail_fast ship"/>
    <edge id="-244282080#0" from="1379421236" to="311046294" priority="3" type="highway.residential" numLanes="1" speed="8.33" disallow="tram rail_urban rail rail_electric rail_fast ship"/>
    <edge id="-244282080#1" from="314938340" to="1379421236" priority="3" type="highway.residential" numLanes="1" speed="8.33" disallow="tram rail_urban rail rail_electric rail_fast ship"/>
    <edge id="-25361340" from="2036340761" to="301361388" priority="4" type="highway.unclassified" numLanes="1" speed="8.33" shape="164.42,975.38 171.58,979.70 177.94,982.19 183.88,983.40 187.86,982.91" disallow="tram rail_urban rail rail_electric rail_fast ship"/>
    <edge id="-257702155#0" from="7230539527" to="2631803349" priority="3" type="highway.residential" numLanes="1" speed="8.33" disallow="tram rail_urban rail rail_electric rail_fast ship"/>
    <edge id="-257702155#1" from="2306168572" to="7230539527" priority="3" type="highway.residential" numLanes="1" speed="8.33" disallow="tram rail_urban rail rail_electric rail_fast ship"/>
    <edge id="-257702155#2" from="7230539523" to="2306168572" priority="3" type="highway.residential" numLanes="1" speed="8.33" disallow="tram rail_urban rail rail_electric rail_fast ship"/>
    <edge id="-257702155#3" from="947998260" to="7230539523" priority="3" type="highway.residential" numLanes="1" speed="8.33" disallow="tram rail_urban rail rail_electric rail_fast ship"/>
    <edge id="-259716340" from="348216425" to="2651685823" priority="3" type="highway.residential" numLanes="1" speed="8.33" disallow="tram rail_urban rail rail_electric rail_fast ship"/>
    <edge id="-260944120" from="891562471" to="2665389903" priority="3" type="highway.residential" numLanes="1" speed="8.33" disallow="tram rail_urban rail rail_electric rail_fast ship"/>
    <edge id="-260944338" from="1003627114" to="2665390692" priority="3" type="highway.residential" numLanes="1" speed="8.33" disallow="tram rail_urban rail rail_electric rail_fast ship"/>
    <edge id="-28321714#0" from="1380510464" to="310989242" priority="3" type="highway.residential" numLanes="1" speed="8.33" disallow="tram rail_urban rail rail_electric rail_fast ship"/>
    <edge id="-28321714#1" from="299983618" to="1380510464" priority="3" type="highway.residential" numLanes="1" speed="8.33" disallow="tram rail_urban rail rail_electric rail_fast ship"/>
    <edge id="-28321714#2" from="760466578" to="299983618" priority="3" type="highway.residential" numLanes="1" speed="8.33" disallow="tram rail_urban rail rail_electric rail_fast ship"/>
    <edge id="-28656019#0" from="314934627" to="314933748" priority="3" type="highway.residential" numLanes="1" speed="8.33" disallow="tram rail_urban rail rail_electric rail_fast ship"/>
    <edge id="-28656019#1" from="25292484" to="314934627" priority="3" type="highway.residential" numLanes="1" speed="8.33" disallow="tram rail_urban rail rail_electric rail_fast ship"/>
    <edge id="-28656019#2" from="310985600" to="25292484" priority="3" type="highway.residential" numLanes="1" speed="8.33" disallow="tram rail_urban rail rail_electric rail_fast ship"/>
    <edge id="-28656019#3" from="3901289276" to="310985600" priority="3" type="highway.residential" numLanes="1" speed="8.33" disallow="tram rail_urban rail rail_electric rail_fast ship"/>
    <edge id="-28842830#0" from="1007051492" to="434463660" priority="3" type="highway.residential" numLanes="1" speed="8.33" shape="647.29,193.66 652.00,199.97 659.14,206.55 677.36,218.41" disallow="tram rail_urban rail rail_electric rail_fast ship"/>
    <edge id="-28842830#1" from="250658253" to="1007051492" priority="3" type="highway.residential" numLanes="1" speed="8.33" shape="642.41,176.33 643.52,182.91 645.10,188.08 647.29,193.66" disallow="tram rail_urban rail rail_electric rail_fast ship"/>
    <edge id="-29064946#0" from="315385113" to="25291550" priority="3" type="highway.residential" numLanes="1" speed="8.33" disallow="tram rail_urban rail rail_electric rail_fast ship"/>
    <edge id="-29064946#1" from="3232013778" to="315385113" priority="3" type="highway.residential" numLanes="1" speed="8.33" disallow="tram rail_urban rail rail_electric rail_fast ship"/>
    <edge id="-29186154#0" from="3216453384" to="298372991" priority="3" type="highway.residential" numLanes="1" speed="8.33" disallow="tram rail_urban rail rail_electric rail_fast ship"/>
    <edge id="-29186154#1" from="3227176325" to="3216453384" priority="3" type="highway.residential" numLanes="1" speed="8.33" shape="239.92,685.38 227.10,677.11 215.21,669.45" disallow="tram rail_urban rail rail_electric rail_fast ship"/>
    <edge id="-29186154#2" from="7676757030" to="3227176325" priority="3" type="highway.residential" numLanes="1" speed="8.33" shape="278.64,710.32 249.43,691.50 239.92,685.38" disallow="tram rail_urban rail rail_electric rail_fast ship"/>
    <edge id="-29186154#3" from="7676756995" to="7676757030" priority="3" type="highway.residential" numLanes="1" speed="8.33" disallow="tram rail_urban rail rail_electric rail_fast ship"/>
    <edge id="-29186154#4" from="310042886" to="7676756995" priority="3" type="highway.residential" numLanes="1" speed="8.33" disallow="tram rail_urban rail rail_electric rail_fast ship"/>