<?xml version="1.0" encoding="UTF-8"?>

<!-- generated on 09/26/22 15:22:55 by Eclipse SUMO netconvert Version 1.7.0
<configuration xmlns:xsi="http://www.w3.org/2001/XMLSchema-instance" xsi:noNamespaceSchemaLocation="http://sumo.dlr.de/xsd/netconvertConfiguration.xsd">

    <input>
        <sumo-net-file value="helsinki.net.xml"/>
    </input>

    <output>
        <plain-output-prefix value="plain"/>
    </output>

    <processing>
        <geometry.min-radius.fix.railways value="false"/>
        <geometry.max-grade.fix value="false"/>
        <offset.disable-normalization value="true"/>
        <lefthand value="false"/>
    </processing>

    <junctions>
        <no-turnarounds value="true"/>
        <junctions.corner-detail value="5"/>
        <junctions.limit-turn-speed value="5.5"/>
        <rectangular-lane-cut value="false"/>
    </junctions>

    <pedestrian>
        <walkingareas value="false"/>
    </pedestrian>

    <report>
        <aggregate-warnings value="5"/>
    </report>

</configuration>
-->

<nodes version="1.6" xmlns:xsi="http://www.w3.org/2001/XMLSchema-instance" xsi:noNamespaceSchemaLocation="http://sumo.dlr.de/xsd/nodes_file.xsd">
    <location netOffset="-385174.69,-6671039.23" convBoundary="0.00,0.00,1135.02,1149.85" origBoundary="24.914235,60.156132,24.966609,60.189319" projParameter="+proj=utm +zone=35 +ellps=WGS84 +datum=WGS84 +units=m +no_defs"/>

    <node id="1003627114" x="943.37" y="611.25" type="priority"/>
    <node id="1004552381" x="693.04" y="696.64" type="priority"/>
    <node id="1004552577" x="697.05" y="695.79" type="priority"/>
    <node id="1005429216" x="1053.05" y="361.74" type="priority"/>
    <node id="1005473142" x="857.72" y="277.86" type="priority"/>
    <node id="1005473202" x="848.92" y="280.29" type="priority"/>
    <node id="1005473289" x="842.06" y="277.57" type="priority"/>
    <node id="1005473391" x="863.19" y="72.98" type="priority"/>
    <node id="1005526387" x="946.91" y="75.36" type="priority"/>
    <node id="1005526433" x="733.44" y="434.40" type="priority"/>
    <node id="1005526490" x="737.59" y="428.07" type="right_before_left"/>
    <node id="1007051486" x="854.82" y="334.02" type="priority"/>
    <node id="1007051492" x="647.29" y="193.66" type="priority"/>
    <node id="1007051629" x="851.37" y="333.93" type="priority"/>
    <node id="1007824351" x="112.34" y="311.25" type="priority"/>
    <node id="1007824554" x="125.88" y="320.14" type="priority"/>
    <node id="1011088523" x="634.23" y="127.00" type="priority"/>
    <node id="1011256640" x="510.52" y="201.11" type="priority"/>
    <node id="1011256666" x="591.23" y="78.14" type="priority"/>
    <node id="1011256677" x="528.05" y="174.41" type="priority"/>
    <node id="1011415132" x="345.69" y="454.24" type="traffic_light" tl="1011415132"/>
    <node id="1011463184" x="672.86" y="548.50" type="priority"/>
    <node id="1012497956" x="1041.99" y="851.71" type="priority"/>
    <node id="1012497968" x="1041.83" y="856.97" type="traffic_light" tl="1012497968"/>
    <node id="1013224876" x="78.95" y="289.33" type="priority"/>
    <node id="1125194694" x="702.04" y="481.82" type="priority"/>
    <node id="1125194699" x="671.57" y="529.47" type="priority"/>
    <node id="1137435462" x="636.62" y="583.29" type="priority"/>
    <node id="1156114391" x="824.25" y="824.22" type="priority"/>
    <node id="1156114393" x="766.60" y="823.47" type="priority"/>
    <node id="1297403614" x="54.35" y="563.66" type="priority"/>
    <node id="1297403622" x="108.89" y="504.52" type="priority"/>
    <node id="1297403632" x="79.67" y="548.94" type="dead_end"/>
    <node id="1297403637" x="114.06" y="496.67" type="priority"/>
    <node id="1297407672" x="127.54" y="475.79" type="priority"/>
    <node id="1297407675" x="148.84" y="442.68" type="priority"/>
    <node id="1297407676" x="138.60" y="458.59" type="priority"/>
    <node id="1297407679" x="168.69" y="411.96" type="priority"/>
    <node id="1297410874" x="248.80" y="289.20" type="priority"/>
    <node id="1297410876" x="242.13" y="299.42" type="priority"/>
    <node id="1297410878" x="225.53" y="324.84" type="priority"/>
    <node id="1297416468" x="338.71" y="149.90" type="priority"/>
    <node id="1297416470" x="319.99" y="178.68" type="priority"/>
    <node id="1297416471" x="345.57" y="139.57" type="priority"/>
    <node id="1297416474" x="276.75" y="245.56" type="priority"/>
    <node id="1297416476" x="363.22" y="112.94" type="priority"/>
    <node id="1297416477" x="332.77" y="158.87" type="priority"/>
    <node id="1297423818" x="391.28" y="71.28" type="dead_end"/>
    <node id="1297423829" x="377.31" y="92.46" type="priority"/>
    <node id="1297428261" x="613.70" y="76.47" type="priority"/>
    <node id="1371748756" x="50.20" y="900.53" type="priority"/>
    <node id="1371750094" x="103.89" y="820.41" type="right_before_left"/>
    <node id="1371750095" x="299.40" y="812.77" type="right_before_left"/>
    <node id="1371750097" x="383.21" y="867.20" type="priority"/>
    <node id="1371750099" x="238.90" y="906.97" type="priority"/>
    <node id="1371750101" x="307.43" y="983.82" type="priority"/>
    <node id="1371751506" x="79.80" y="812.32" type="priority"/>
    <node id="1371751508" x="89.09" y="814.04" type="traffic_light" tl="1371751508"/>
    <node id="1372205478" x="185.16" y="227.29" type="priority"/>
    <node id="1372247485" x="255.80" y="278.39" type="traffic_light" tl="1372247485"/>
    <node id="1372260450" x="293.21" y="51.29" type="priority"/>
    <node id="1372260455" x="298.01" y="54.50" type="right_before_left"/>
    <node id="1372260491" x="371.21" y="101.34" type="right_before_left"/>
    <node id="1372260494" x="262.80" y="110.58" type="priority"/>
    <node id="1372260497" x="327.75" y="166.59" type="right_before_left"/>
    <node id="1372287165" x="274.20" y="131.36" type="priority"/>
    <node id="1372441189" x="93.84" y="679.53" type="right_before_left"/>
    <node id="1372470119" x="618.23" y="806.83" type="right_before_left"/>
    <node id="1372477605" x="695.08" y="693.72" type="priority"/>
    <node id="1376344654" x="1053.18" y="354.82" type="right_before_left"/>
    <node id="1377208998" x="437.84" y="690.40" type="priority"/>
    <node id="1377209035" x="487.99" y="722.99" type="priority"/>
    <node id="1377211666" x="396.20" y="663.66" type="priority"/>
    <node id="1377211667" x="166.59" y="728.29" type="priority"/>
    <node id="1377211668" x="339.89" y="749.79" type="right_before_left"/>
    <node id="1377211669" x="528.96" y="749.48" type="traffic_light" tl="1377211669"/>
    <node id="1377610493" x="122.26" y="484.03" type="traffic_light" tl="1377610493"/>
    <node id="1377940906" x="760.59" y="67.94" type="dead_end"/>
    <node id="1377940911" x="852.61" y="140.44" type="priority"/>
    <node id="1377940920" x="683.08" y="222.08" type="right_before_left"/>
    <node id="1377940926" x="655.98" y="265.46" type="right_before_left"/>
    <node id="1377940927" x="788.58" y="349.50" type="right_before_left"/>
    <node id="1378036892" x="172.22" y="862.91" type="priority"/>
    <node id="1379421236" x="854.37" y="72.73" type="right_before_left"/>
    <node id="1379421238" x="958.14" y="75.68" type="right_before_left"/>
    <node id="1379421404" x="1054.29" y="302.10" type="right_before_left"/>
    <node id="1380274059" x="955.61" y="163.99" type="priority"/>
    <node id="1380274121" x="849.34" y="277.63" type="right_before_left"/>
    <node id="1380274123" x="952.24" y="281.64" type="right_before_left"/>
    <node id="1380291042" x="636.46" y="133.92" type="priority"/>
    <node id="1380291085" x="846.58" y="333.85" type="right_before_left"/>
    <node id="1380323407" x="951.44" y="304.23" type="right_before_left"/>
    <node id="1380323468" x="845.02" y="384.90" type="right_before_left"/>
    <node id="1380323657" x="843.59" y="430.85" type="right_before_left"/>
    <node id="1380323658" x="946.22" y="433.70" type="right_before_left"/>
    <node id="1380323660" x="946.62" y="489.33" type="right_before_left"/>
    <node id="1380411602" x="711.98" y="589.32" type="traffic_light" tl="1380411602"/>
    <node id="1380411607" x="838.02" y="609.97" type="right_before_left"/>
    <node id="1380411608" x="837.54" y="637.11" type="right_before_left"/>
    <node id="1380411630" x="942.38" y="640.76" type="right_before_left"/>
    <node id="1380510464" x="1048.20" y="586.43" type="right_before_left"/>
    <node id="1380961225" x="755.29" y="823.31" type="priority"/>
    <node id="1380974098" x="1039.50" y="967.38" type="priority"/>
    <node id="1380974104" x="824.55" y="1056.85" type="priority"/>
    <node id="1380974106" x="933.84" y="1055.84" type="priority"/>
    <node id="1380976626" x="554.34" y="900.99" type="traffic_light" tl="1380976626"/>
    <node id="1405850868" x="352.43" y="468.27" type="traffic_light" tl="1405850868"/>
    <node id="1405850873" x="402.03" y="500.89" type="priority"/>
    <node id="1405866798" x="795.08" y="609.16" type="priority"/>
    <node id="1413816272" x="838.21" y="1054.30" type="priority"/>
    <node id="1413816275" x="921.35" y="1055.38" type="priority"/>
    <node id="1416958253" x="350.74" y="733.01" type="priority"/>
    <node id="1420446379" x="557.46" y="203.30" type="priority"/>
    <node id="1426836913" x="128.32" y="835.05" type="priority"/>
    <node id="1426836916" x="170.38" y="861.70" type="priority"/>
    <node id="1426836919" x="178.53" y="867.08" type="priority"/>
    <node id="1426836922" x="199.43" y="880.87" type="priority"/>
    <node id="1456572631" x="677.41" y="821.29" type="priority"/>
    <node id="1456572633" x="685.12" y="821.91" type="priority"/>
    <node id="1456772990" x="424.85" y="682.08" type="priority"/>
    <node id="1457909400" x="628.35" y="792.48" type="traffic_light" tl="1457909400"/>
    <node id="1457909403" x="645.18" y="804.33" type="traffic_light" tl="1457909403"/>
    <node id="1483296615" x="1095.18" y="490.39" type="priority"/>
    <node id="149161959" x="24.53" y="69.10" type="dead_end"/>
    <node id="150983569" x="161.95" y="856.15" type="priority"/>
    <node id="1513666605" x="957.43" y="105.26" type="priority"/>
    <node id="1513666643" x="955.37" y="172.41" type="priority"/>
    <node id="1547012334" x="59.46" y="693.27" type="priority"/>
    <node id="1577981244" x="626.38" y="831.00" type="priority"/>
    <node id="1621482165" x="878.53" y="758.72" type="priority"/>
    <node id="1651494815" x="86.07" y="847.43" type="priority"/>
    <node id="1674252418" x="987.16" y="302.04" type="priority"/>
    <node id="1677741874" x="699.81" y="822.31" type="priority"/>
    <node id="1677741875" x="718.47" y="822.65" type="priority"/>
    <node id="1677747117" x="743.55" y="823.18" type="priority"/>
    <node id="1683121375" x="1048.92" y="557.94" type="priority"/>
    <node id="189426849" x="954.28" y="1056.15" type="priority"/>
    <node id="189508866" x="718.51" y="576.58" type="traffic_light" tl="189508866"/>
    <node id="1936085683" x="813.09" y="1137.49" type="traffic_light" tl="1936085683"/>
    <node id="1973747714" x="77.48" y="668.50" type="priority"/>
    <node id="1984341838" x="639.49" y="777.12" type="priority"/>
    <node id="1984341841" x="630.96" y="789.14" type="priority"/>
    <node id="1984341845" x="597.22" y="836.65" type="priority"/>
    <node id="1984341848" x="579.78" y="861.95" type="priority"/>
    <node id="1984341849" x="572.47" y="872.55" type="priority"/>
    <node id="2036340756" x="154.19" y="968.56" type="priority"/>
    <node id="2036340761" x="164.42" y="975.38" type="priority"/>
    <node id="2036515884" x="381.82" y="360.35" type="priority"/>
    <node id="2036515885" x="386.09" y="363.13" type="priority"/>
    <node id="2036515886" x="446.36" y="402.66" type="priority"/>
    <node id="2036515887" x="475.47" y="421.96" type="priority"/>
    <node id="2036515888" x="494.86" y="434.72" type="priority"/>
    <node id="2036515890" x="516.02" y="448.65" type="priority"/>
    <node id="2036543084" x="538.55" y="463.46" type="priority"/>
    <node id="2036543086" x="566.69" y="481.71" type="priority"/>
    <node id="2036543088" x="592.56" y="498.51" type="priority"/>
    <node id="2036543090" x="597.64" y="501.81" type="priority"/>
    <node id="2036543092" x="617.91" y="514.96" type="priority"/>
    <node id="2036543095" x="632.50" y="524.44" type="priority"/>
    <node id="2036543097" x="650.13" y="535.88" type="priority"/>
    <node id="2036582381" x="898.51" y="759.11" type="priority"/>
    <node id="2036622212" x="963.96" y="759.90" type="priority"/>
    <node id="2053606912" x="1072.92" y="830.13" type="priority"/>
    <node id="206102178" x="950.65" y="1099.29" type="priority"/>
    <node id="2069172149" x="825.60" y="309.96" type="priority"/>
    <node id="2069172152" x="835.74" y="316.15" type="priority"/>
    <node id="2069175021" x="838.71" y="268.25" type="priority"/>
    <node id="2075922541" x="942.80" y="628.16" type="priority"/>
    <node id="2112507858" x="1038.12" y="1044.61" type="priority"/>
    <node id="2195109748" x="431.61" y="520.30" type="priority"/>
    <node id="2195109761" x="536.71" y="589.10" type="priority"/>
    <node id="2195109765" x="553.18" y="599.89" type="priority"/>
    <node id="2218810056" x="601.90" y="797.10" type="priority"/>
    <node id="2260404103" x="238.44" y="934.73" type="priority"/>
    <node id="2260404114" x="234.10" y="940.89" type="priority"/>
    <node id="2260404116" x="249.66" y="943.45" type="priority"/>
    <node id="2264808902" x="542.52" y="918.07" type="priority"/>
    <node id="2264808904" x="539.29" y="922.89" type="priority"/>
    <node id="2264808905" x="514.30" y="957.29" type="priority"/>
    <node id="2264808906" x="497.36" y="981.85" type="priority"/>
    <node id="2269494568" x="576.35" y="615.00" type="right_before_left"/>
    <node id="2282947011" x="1003.93" y="585.07" type="priority"/>
    <node id="2306168572" x="1045.32" y="699.64" type="priority"/>
    <node id="2395669737" x="251.30" y="285.37" type="priority"/>
    <node id="2403530744" x="1038.01" y="1010.94" type="priority"/>
    <node id="2403881125" x="920.16" y="639.98" type="priority"/>
    <node id="2403892462" x="765.21" y="608.59" type="priority"/>
    <node id="2403899237" x="711.02" y="630.26" type="priority"/>
    <node id="2419328853" x="130.71" y="781.87" type="priority"/>
    <node id="2423061066" x="642.58" y="574.11" type="priority"/>
    <node id="2423066851" x="598.47" y="643.29" type="priority"/>
    <node id="2423068780" x="555.01" y="709.08" type="priority"/>
    <node id="2423080152" x="432.04" y="686.68" type="priority"/>
    <node id="2423080166" x="483.09" y="719.81" type="priority"/>
    <node id="2423094586" x="299.72" y="600.59" type="priority"/>
    <node id="2423097276" x="256.15" y="572.93" type="priority"/>
    <node id="2423790647" x="259.23" y="585.64" type="priority"/>
    <node id="2423790648" x="255.96" y="590.63" type="priority"/>
    <node id="2423790649" x="226.73" y="634.93" type="priority"/>
    <node id="2424030495" x="214.05" y="654.54" type="priority"/>
    <node id="2424032769" x="220.04" y="645.49" type="priority"/>
    <node id="2424039027" x="179.61" y="708.16" type="priority"/>
    <node id="243970410" x="1050.63" y="489.74" type="right_before_left"/>
    <node id="246630384" x="712.45" y="707.35" type="right_before_left"/>
    <node id="246630386" x="685.02" y="712.19" type="priority"/>
    <node id="246789761" x="487.15" y="177.01" type="priority"/>
    <node id="246789763" x="509.45" y="191.63" type="priority"/>
    <node id="247359926" x="604.05" y="58.44" type="dead_end"/>
    <node id="2485284348" x="231.90" y="917.94" type="traffic_light" tl="2485284348"/>
    <node id="250658253" x="642.41" y="176.33" type="right_before_left"/>
    <node id="2524250200" x="728.82" y="652.66" type="priority"/>
    <node id="25291537" x="340.87" y="460.90" type="right_before_left"/>
    <node id="25291550" x="529.88" y="457.62" type="priority"/>
    <node id="25291564" x="604.52" y="633.48" type="priority"/>
    <node id="25291565" x="472.44" y="546.98" type="traffic_light" tl="25291565"/>
    <node id="25291567" x="663.10" y="542.45" type="priority"/>
    <node id="25291568" x="735.09" y="431.90" type="right_before_left"/>
    <node id="25291570" x="471.15" y="260.59" type="priority"/>
    <node id="25291571" x="399.08" y="371.62" type="traffic_light" tl="25291571"/>
    <node id="25291572" x="731.61" y="592.67" type="priority"/>
    <node id="25291581" x="728.37" y="665.61" type="priority"/>
    <node id="25291591" x="264.59" y="577.58" type="priority"/>
    <node id="25292451" x="835.46" y="756.30" type="priority"/>
    <node id="25292473" x="197.81" y="367.34" type="right_before_left"/>
    <node id="25292476" x="514.58" y="194.94" type="right_before_left"/>
    <node id="25292477" x="560.51" y="124.95" type="right_before_left"/>
    <node id="25292480" x="523.30" y="181.66" type="right_before_left"/>
    <node id="25292484" x="817.29" y="304.87" type="right_before_left"/>
    <node id="25292485" x="846.91" y="322.86" type="right_before_left"/>
    <node id="25345637" x="654.21" y="756.38" type="priority"/>
    <node id="25345643" x="432.47" y="1072.12" type="priority"/>
    <node id="25345665" x="1042.78" y="829.41" type="priority"/>
    <node id="25345666" x="832.52" y="824.42" type="priority"/>
    <node id="25345669" x="1043.68" y="760.86" type="priority"/>
    <node id="25413709" x="517.73" y="1117.91" type="dead_end"/>
    <node id="256257149" x="505.24" y="970.39" type="traffic_light" tl="256257149"/>
    <node id="256257151" x="522.47" y="983.05" type="traffic_light" tl="256257151"/>
    <node id="2631803349" x="1045.25" y="702.33" type="priority"/>
    <node id="264015226" x="1042.37" y="839.06" type="traffic_light" tl="264015226"/>
    <node id="2651685823" x="835.83" y="734.68" type="priority"/>
    <node id="265729542" x="497.05" y="1015.35" type="priority"/>
    <node id="266378250" x="689.72" y="709.12" type="traffic_light" tl="266378250"/>
    <node id="2665389903" x="941.73" y="664.77" type="priority"/>
    <node id="2665390692" x="943.78" y="598.71" type="priority"/>
    <node id="276385368" x="815.74" y="1134.20" type="traffic_light" tl="276385368"/>
    <node id="277398825" x="709.35" y="470.40" type="priority"/>
    <node id="277401793" x="1041.79" y="858.41" type="priority"/>
    <node id="288369504" x="497.80" y="1106.58" type="traffic_light" tl="288369504"/>
    <node id="288369506" x="457.00" y="1095.09" type="dead_end"/>
    <node id="288369507" x="465.07" y="1083.22" type="traffic_light" tl="288369507"/>
    <node id="288554482" x="566.64" y="917.47" type="priority"/>
    <node id="288554684" x="564.50" y="920.35" type="priority"/>
    <node id="288883180" x="1040.11" y="950.11" type="priority"/>
    <node id="289550267" x="769.27" y="337.33" type="priority"/>
    <node id="289550268" x="797.63" y="292.11" type="priority"/>
    <node id="292725351" x="611.00" y="803.00" type="traffic_light" tl="292725351"/>
    <node id="292725458" x="608.99" y="801.67" type="traffic_light" tl="292725458"/>
    <node id="292727217" x="687.09" y="687.38" type="traffic_light" tl="292727217"/>
    <node id="292727220" x="700.09" y="685.77" type="traffic_light" tl="292727220"/>
    <node id="292727226" x="718.49" y="697.43" type="traffic_light" tl="292727226"/>
    <node id="292727232" x="729.60" y="690.47" type="traffic_light" tl="292727232"/>
    <node id="292727238" x="728.97" y="712.36" type="right_before_left"/>
    <node id="292727242" x="732.13" y="714.31" type="traffic_light" tl="292727242"/>
    <node id="292727251" x="723.81" y="709.64" type="traffic_light" tl="292727251"/>
    <node id="292728916" x="1043.42" y="768.43" type="traffic_light" tl="292728916"/>
    <node id="292858655" x="124.15" y="309.41" type="priority"/>
    <node id="292858656" x="202.04" y="360.80" type="traffic_light" tl="292858656"/>
    <node id="292858658" x="476.52" y="540.74" type="traffic_light" tl="292858658"/>
    <node id="292858659" x="608.66" y="626.72" type="priority"/>
    <node id="292859321" x="193.72" y="373.81" type="traffic_light" tl="292859321"/>
    <node id="292859323" x="336.04" y="467.60" type="traffic_light" tl="292859323"/>
    <node id="292859324" x="467.90" y="553.92" type="traffic_light" tl="292859324"/>
    <node id="292859342" x="600.01" y="640.79" type="priority"/>
    <node id="295055259" x="339.70" y="934.37" type="priority"/>
    <node id="295055265" x="379.38" y="864.06" type="priority"/>
    <node id="295055275" x="386.72" y="863.14" type="priority"/>
    <node id="295055291" x="469.07" y="833.05" type="priority"/>
    <node id="295055293" x="469.91" y="842.03" type="priority"/>
    <node id="295056672" x="313.48" y="974.95" type="traffic_light" tl="295056672"/>
    <node id="295056712" x="299.99" y="978.57" type="traffic_light" tl="295056712"/>
    <node id="295058834" x="379.62" y="872.57" type="priority"/>
    <node id="295058921" x="476.87" y="831.65" type="priority"/>
    <node id="295711606" x="416.96" y="1090.43" type="traffic_light" tl="295711606"/>
    <node id="295711611" x="436.19" y="1102.95" type="traffic_light" tl="295711611"/>
    <node id="296047183" x="134.21" y="776.82" type="priority"/>
    <node id="296248024" x="1042.96" y="822.38" type="traffic_light" tl="296248024"/>
    <node id="296248490" x="1043.96" y="753.10" type="traffic_light" tl="296248490"/>
    <node id="296250223" x="833.14" y="767.00" type="traffic_light" tl="296250223"/>
    <node id="296250563" x="832.06" y="818.05" type="priority"/>
    <node id="296250574" x="613.26" y="813.26" type="traffic_light" tl="296250574"/>
    <node id="296250576" x="630.87" y="824.77" type="traffic_light" tl="296250576"/>
    <node id="296250613" x="838.95" y="824.54" type="priority"/>
    <node id="296250734" x="534.14" y="752.86" type="priority"/>
    <node id="296250736" x="525.55" y="754.94" type="priority"/>
    <node id="296250741" x="523.91" y="746.18" type="priority"/>
    <node id="296250755" x="532.27" y="744.19" type="priority"/>
    <node id="296250765" x="612.94" y="638.82" type="priority"/>
    <node id="297679982" x="562.82" y="886.43" type="traffic_light" tl="297679982"/>
    <node id="297679985" x="580.04" y="899.19" type="traffic_light" tl="297679985"/>
    <node id="297679988" x="583.54" y="894.35" type="traffic_light" tl="297679988"/>
    <node id="297679990" x="608.85" y="819.80" type="traffic_light" tl="297679990"/>
    <node id="297679991" x="648.09" y="800.53" type="traffic_light" tl="297679991"/>
    <node id="298109749" x="126.32" y="477.66" type="traffic_light" tl="298109749"/>
    <node id="298137943" x="232.90" y="902.97" type="priority"/>
    <node id="298137948" x="293.29" y="809.27" type="priority"/>
    <node id="298273573" x="691.21" y="822.31" type="traffic_light" tl="298273573"/>
    <node id="298273890" x="826.45" y="755.05" type="traffic_light" tl="298273890"/>
    <node id="298274871" x="732.32" y="566.81" type="traffic_light" tl="298274871"/>
    <node id="298274896" x="737.43" y="608.06" type="traffic_light" tl="298274896"/>
    <node id="298275343" x="939.35" y="751.67" type="traffic_light" tl="298275343"/>
    <node id="298275983" x="306.23" y="817.13" type="priority"/>
    <node id="298275993" x="303.01" y="806.99" type="priority"/>
    <node id="298277836" x="1038.00" y="1052.20" type="priority"/>
    <node id="298278778" x="295.35" y="818.80" type="priority"/>
    <node id="298368069" x="70.62" y="574.33" type="traffic_light" tl="298368069"/>
    <node id="298368073" x="60.26" y="567.57" type="traffic_light" tl="298368073"/>
    <node id="298372061" x="146.39" y="624.30" type="priority"/>
    <node id="298372071" x="102.53" y="685.25" type="priority"/>
    <node id="298372076" x="204.15" y="670.65" type="traffic_light" tl="298372076"/>
    <node id="298372080" x="172.03" y="732.08" type="traffic_light" tl="298372080"/>
    <node id="298372985" x="202.83" y="661.48" type="traffic_light" tl="298372985"/>
    <node id="298372989" x="210.97" y="659.34" type="traffic_light" tl="298372989"/>
    <node id="298372991" x="212.86" y="667.94" type="traffic_light" tl="298372991"/>
    <node id="298372997" x="342.69" y="745.19" type="priority"/>
    <node id="298372999" x="345.84" y="753.63" type="priority"/>
    <node id="298373001" x="335.91" y="756.23" type="priority"/>
    <node id="298373727" x="161.85" y="724.99" type="traffic_light" tl="298373727"/>
    <node id="298373729" x="170.20" y="722.55" type="traffic_light" tl="298373729"/>
    <node id="298373896" x="162.21" y="735.23" type="traffic_light" tl="298373896"/>
    <node id="298373925" x="97.83" y="817.12" type="traffic_light" tl="298373925"/>
    <node id="299968465" x="391.22" y="660.38" type="traffic_light" tl="299968465"/>
    <node id="299968469" x="399.76" y="658.13" type="traffic_light" tl="299968469"/>
    <node id="299968471" x="402.17" y="667.57" type="traffic_light" tl="299968471"/>
    <node id="299968940" x="260.61" y="583.53" type="traffic_light" tl="299968940"/>
    <node id="299968946" x="392.60" y="669.24" type="traffic_light" tl="299968946"/>
    <node id="299979844" x="888.62" y="335.26" type="priority"/>
    <node id="299979846" x="914.37" y="336.21" type="priority"/>
    <node id="299979864" x="855.92" y="277.78" type="priority"/>
    <node id="299979865" x="946.10" y="281.46" type="priority"/>
    <node id="299979866" x="944.16" y="337.31" type="priority"/>
    <node id="299979867" x="853.27" y="333.95" type="priority"/>
    <node id="299980095" x="824.05" y="308.94" type="priority"/>
    <node id="299980096" x="794.24" y="353.13" type="priority"/>
    <node id="299980108" x="792.59" y="343.33" type="priority"/>
    <node id="299980112" x="659.47" y="260.00" type="priority"/>
    <node id="299982760" x="1051.22" y="459.52" type="priority"/>
    <node id="299983608" x="1048.58" y="571.35" type="priority"/>
    <node id="299983618" x="1048.41" y="577.93" type="priority"/>
    <node id="299983619" x="1050.42" y="498.89" type="priority"/>
    <node id="299983622" x="1050.28" y="504.70" type="priority"/>
    <node id="300020623" x="118.50" y="489.92" type="traffic_light" tl="300020623"/>
    <node id="300020877" x="268.30" y="571.95" type="traffic_light" tl="300020877"/>
    <node id="301360155" x="88.86" y="683.66" type="priority"/>
    <node id="301360158" x="83.50" y="672.57" type="priority"/>
    <node id="301360871" x="164.76" y="851.90" type="priority"/>
    <node id="301360876" x="108.03" y="814.52" type="traffic_light" tl="301360876"/>
    <node id="301360877" x="110.19" y="823.69" type="traffic_light" tl="301360877"/>
    <node id="301360890" x="175.92" y="834.67" type="priority"/>
    <node id="301361388" x="187.86" y="982.91" type="priority"/>
    <node id="301362087" x="98.35" y="828.35" type="traffic_light" tl="301362087"/>
    <node id="3062542188" x="650.96" y="273.30" type="priority"/>
    <node id="309705063" x="374.97" y="96.01" type="priority"/>
    <node id="310042886" x="334.81" y="746.52" type="priority"/>
    <node id="310063816" x="295.24" y="59.17" type="priority"/>
    <node id="310063818" x="365.98" y="108.78" type="priority"/>
    <node id="310063909" x="366.31" y="98.00" type="priority"/>
    <node id="310089283" x="476.01" y="253.26" type="priority"/>
    <node id="310089287" x="331.08" y="161.40" type="priority"/>
    <node id="310089298" x="324.35" y="171.90" type="priority"/>
    <node id="310090478" x="376.63" y="105.04" type="priority"/>
    <node id="310147648" x="553.94" y="120.62" type="priority"/>
    <node id="310147814" x="565.36" y="128.02" type="priority"/>
    <node id="310148418" x="528.16" y="184.78" type="priority"/>
    <node id="310148511" x="518.57" y="188.86" type="priority"/>
    <node id="310148890" x="524.71" y="454.36" type="traffic_light" tl="310148890"/>
    <node id="310148892" x="647.28" y="260.25" type="priority"/>
    <node id="310148894" x="535.18" y="461.26" type="traffic_light" tl="310148894"/>
    <node id="310148897" x="661.10" y="268.53" type="priority"/>
    <node id="310149274" x="652.24" y="271.32" type="priority"/>
    <node id="310150364" x="467.40" y="543.69" type="traffic_light" tl="310150364"/>
    <node id="310151301" x="480.99" y="552.59" type="traffic_light" tl="310151301"/>
    <node id="310973840" x="557.36" y="129.66" type="priority"/>
    <node id="310973847" x="564.20" y="119.35" type="priority"/>
    <node id="310984424" x="679.64" y="227.60" type="priority"/>
    <node id="310984613" x="690.37" y="223.79" type="priority"/>
    <node id="310985433" x="784.51" y="355.62" type="priority"/>
    <node id="310985600" x="814.11" y="309.62" type="priority"/>
    <node id="310985601" x="782.54" y="345.68" type="priority"/>
    <node id="310987501" x="845.48" y="371.65" type="priority"/>
    <node id="310987504" x="838.78" y="381.21" type="priority"/>
    <node id="310987676" x="846.85" y="326.68" type="priority"/>
    <node id="310987688" x="846.32" y="340.85" type="priority"/>
    <node id="310987705" x="848.35" y="284.69" type="priority"/>
    <node id="310987707" x="849.65" y="269.73" type="priority"/>
    <node id="310987710" x="810.43" y="300.43" type="priority"/>
    <node id="310988084" x="950.05" y="343.90" type="priority"/>
    <node id="310988087" x="955.41" y="489.47" type="priority"/>
    <node id="310988217" x="938.33" y="433.49" type="priority"/>
    <node id="310988598" x="946.54" y="498.36" type="priority"/>
    <node id="310988743" x="1050.77" y="483.40" type="priority"/>
    <node id="310988754" x="998.92" y="490.17" type="priority"/>
    <node id="310989237" x="1058.70" y="489.50" type="priority"/>
    <node id="310989240" x="1055.09" y="586.64" type="priority"/>
    <node id="310989242" x="1047.98" y="595.10" type="priority"/>
    <node id="310989244" x="944.02" y="591.73" type="priority"/>