<?xml version="1.0" encoding="UTF-8"?>

<!-- generated on 09/26/22 15:22:55 by Eclipse SUMO netconvert Version 1.7.0
<configuration xmlns:xsi="http://www.w3.org/2001/XMLSchema-instance" xsi:noNamespaceSchemaLocation="http://sumo.dlr.de/xsd/netconvertConfiguration.xsd">

    <input>
        <sumo-net-file value="helsinki.net.xml"/>
    </input>

    <output>
        <plain-output-prefix value="plain"/>
    </output>

    <processing>
        <geometry.min-radius.fix.railways value="false"/>
        <geometry.max-grade.fix value="false"/>
        <offset.disable-normalization value="true"/>
        <lefthand value="false"/>
    </processing>

    <junctions>
        <no-turnarounds value="true"/>
        <junctions.corner-detail value="5"/>
        <junctions.limit-turn-speed value="5.5"/>
        <rectangular-lane-cut value="false"/>
    </junctions>

    <pedestrian>
        <walkingareas value="false"/>
    </pedestrian>

    <report>
        <aggregate-warnings value="5"/>
    </report>

</configuration>
-->

<connections version="1.6" xmlns:xsi="http://www.w3.org/2001/XMLSchema-instance" xsi:noNamespaceSchemaLocation="http://sumo.dlr.de/xsd/connections_file.xsd">
    <connection from="-114554802#0" to="114554802#0" fromLane="0" toLane="0"/>

    <connection from="-114554802#1" to="-114554802#0" fromLane="0" toLane="0"/>

    <connection from="-114554802#2" to="-114554802#1" fromLane="0" toLane="0"/>

    <connection from="-114554802#3" to="-114554802#2" fromLane="0" toLane="0"/>

    <connection from="-114554802#4" to="-114554802#3" fromLane="0" toLane="0"/>

    <connection from="-114554802#5" to="-114554802#4" fromLane="0" toLane="0"/>

    <connection from="-114554802#6" to="-114554802#5" fromLane="0" toLane="0"/>

    <connection from="-114554802#7" to="-114554802#6" fromLane="0" toLane="0"/>

    <connection from="-114554802#8" to="-114554802#7" fromLane="0" toLane="0"/>

    <connection from="-114557572" to="-23180033#1" fromLane="0" toLane="0"/>

    <connection from="-122886921#0" to="122886923#0" fromLane="0" toLane="0"/>

    <connection from="-122886921#1" to="-122886921#0" fromLane="0" toLane="0"/>

    <connection from="-122886921#2" to="-122886921#1" fromLane="0" toLane="0"/>

    <connection from="-122886922#0" to="30436421#0" fromLane="0" toLane="0"/>
    <connection from="-122886922#0" to="-52656372#2" fromLane="0" toLane="0"/>
    <connection from="-122886922#0" to="122886922#0" fromLane="0" toLane="0"/>

    <connection from="-122886922#1" to="-122886922#0" fromLane="0" toLane="0"/>

    <connection from="-122886922#2" to="-122886922#1" fromLane="0" toLane="0"/>

    <connection from="-122949520#0" to="122949522#0" fromLane="0" toLane="0"/>

    <connection from="-122949520#1" to="-122949520#0" fromLane="0" toLane="0"/>

    <connection from="-122949520#10" to="-122949520#9" fromLane="0" toLane="0"/>

    <connection from="-122949520#11" to="-122949520#10" fromLane="0" toLane="0"/>

    <connection from="-122949520#12" to="-122949520#11" fromLane="0" toLane="0"/>

    <connection from="-122949520#2" to="-122949520#1" fromLane="0" toLane="0"/>

    <connection from="-122949520#3" to="-122949520#2" fromLane="0" toLane="0"/>

    <connection from="-122949520#4" to="-122949520#3" fromLane="0" toLane="0"/>

    <connection from="-122949520#5" to="-122949520#4" fromLane="0" toLane="0"/>

    <connection from="-122949520#6" to="-122949520#5" fromLane="0" toLane="0"/>
    <connection from="-122949520#6" to="114555768#2" fromLane="0" toLane="0"/>
    <connection from="-122949520#6" to="122949520#6" fromLane="0" toLane="0"/>

    <connection from="-122949520#7" to="-122949520#6" fromLane="0" toLane="0"/>

    <connection from="-122949520#8" to="-122949520#7" fromLane="0" toLane="0"/>

    <connection from="-122949520#9" to="-122949520#8" fromLane="0" toLane="0"/>

    <connection from="-122949522#0" to="122949520#0" fromLane="0" toLane="0"/>

    <connection from="-122949522#1" to="-122949522#0" fromLane="0" toLane="0"/>

    <connection from="-122949524#0" to="30001816#0" fromLane="0" toLane="0"/>
    <connection from="-122949524#0" to="30001818#0" fromLane="0" toLane="0"/>
    <connection from="-122949524#0" to="122949524#0" fromLane="0" toLane="0"/>

    <connection from="-122949524#1" to="-122949524#0" fromLane="0" toLane="0"/>

    <connection from="-122949524#2" to="-122949524#1" fromLane="0" toLane="0"/>
    <connection from="-122949524#2" to="-122949522#1" fromLane="0" toLane="0"/>
    <connection from="-122949524#2" to="122949524#2" fromLane="0" toLane="0"/>

    <connection from="-122949524#3" to="-122949524#2" fromLane="0" toLane="0"/>

    <connection from="-122950930" to="-128562363" fromLane="0" toLane="0"/>

    <connection from="-122962417#0" to="-186631612#1" fromLane="0" toLane="0"/>
    <connection from="-122962417#0" to="186631612#2" fromLane="0" toLane="0"/>
    <connection from="-122962417#0" to="122962417#0" fromLane="0" toLane="0"/>

    <connection from="-122962417#1" to="-122962417#0" fromLane="0" toLane="0"/>

    <connection from="-123412755#0" to="-81152596#1" fromLane="0" toLane="0"/>
    <connection from="-123412755#0" to="81152596#2" fromLane="0" toLane="0"/>
    <connection from="-123412755#0" to="123412755#0" fromLane="0" toLane="0"/>

    <connection from="-123412755#1" to="-123412755#0" fromLane="0" toLane="0"/>

    <connection from="-123635329#0" to="37287290" fromLane="0" toLane="0"/>
    <connection from="-123635329#0" to="82410875#0" fromLane="0" toLane="0"/>
    <connection from="-123635329#0" to="123635329#0" fromLane="0" toLane="0"/>

    <connection from="-123635329#1" to="-123635329#0" fromLane="0" toLane="0"/>

    <connection from="-123901490" to="-54821945#1" fromLane="0" toLane="0"/>
    <connection from="-123901490" to="123901490" fromLane="0" toLane="0"/>

    <connection from="-123905592" to="-77893328#1" fromLane="0" toLane="0"/>

    <connection from="-126902357#0" to="-42919375" fromLane="0" toLane="0"/>

    <connection from="-126902357#1" to="-126902357#0" fromLane="0" toLane="0"/>

    <connection from="-126902358" to="-30903129#2" fromLane="0" toLane="0"/>

    <connection from="-127104868#0" to="-62383932#2" fromLane="0" toLane="0"/>
    <connection from="-127104868#0" to="7920348#0" fromLane="0" toLane="0"/>
    <connection from="-127104868#0" to="127104868#0" fromLane="0" toLane="0"/>

    <connection from="-127104868#1" to="-127104868#0" fromLane="0" toLane="0"/>

    <connection from="-127104874" to="264777229" fromLane="0" toLane="0"/>
    <connection from="-127104874" to="-37142650" fromLane="0" toLane="0"/>
    <connection from="-127104874" to="127104874" fromLane="0" toLane="0"/>

    <connection from="-127809157" to="-4247500#2" fromLane="0" toLane="0"/>

    <connection from="-127809159#0" to="-127809157" fromLane="0" toLane="0"/>

    <connection from="-127809159#1" to="-127809159#0" fromLane="0" toLane="0"/>

    <connection from="-127809159#2" to="-36730362#1" fromLane="0" toLane="0"/>
    <connection from="-127809159#2" to="-127809159#1" fromLane="0" toLane="0"/>
    <connection from="-127809159#2" to="127809159#2" fromLane="0" toLane="0"/>

    <connection from="-127809159#3" to="-127809159#2" fromLane="0" toLane="0"/>

    <connection from="-128171761" to="-62200559#1" fromLane="0" toLane="0"/>

    <connection from="-128562363" to="-81924145#4" fromLane="0" toLane="0"/>

    <connection from="-129300233#0" to="-129300244#1" fromLane="0" toLane="0"/>

    <connection from="-129300233#1" to="-129300233#0" fromLane="0" toLane="0"/>

    <connection from="-129300238#0" to="-129300233#1" fromLane="0" toLane="0"/>

    <connection from="-129300238#1" to="-129300238#0" fromLane="0" toLane="0"/>

    <connection from="-129300241#0" to="-122886922#2" fromLane="0" toLane="0"/>

    <connection from="-129300241#1" to="-129300241#0" fromLane="0" toLane="0"/>

    <connection from="-129300241#2" to="-129300241#1" fromLane="0" toLane="0"/>
    <connection from="-129300241#2" to="15240373#0" fromLane="0" toLane="0"/>
    <connection from="-129300241#2" to="129300241#2" fromLane="0" toLane="0"/>

    <connection from="-129300244#0" to="-129300241#2" fromLane="0" toLane="0"/>

    <connection from="-129300244#1" to="-129300244#0" fromLane="0" toLane="0"/>

    <connection from="-134994760" to="134994760" fromLane="0" toLane="0"/>

    <connection from="-134994771" to="-28321714#2" fromLane="0" toLane="0"/>

    <connection from="-143057426#0" to="-74307865#2" fromLane="0" toLane="0"/>

    <connection from="-143057426#1" to="-143057426#0" fromLane="0" toLane="0"/>

    <connection from="-143057427#0" to="37498070" fromLane="0" toLane="0"/>
    <connection from="-143057427#0" to="-197339887#1" fromLane="0" toLane="0"/>
    <connection from="-143057427#0" to="143057427#0" fromLane="0" toLane="0"/>

    <connection from="-143057427#1" to="-143057427#0" fromLane="0" toLane="0"/>

    <connection from="-143057430" to="-62382995#2" fromLane="0" toLane="0"/>

    <connection from="-14472965#0" to="4247500#0" fromLane="0" toLane="0"/>

    <connection from="-14472965#1" to="-14472965#0" fromLane="0" toLane="0"/>

    <connection from="-15240373#0" to="129300241#2" fromLane="0" toLane="0"/>
    <connection from="-15240373#0" to="-129300241#1" fromLane="0" toLane="0"/>
    <connection from="-15240373#0" to="15240373#0" fromLane="0" toLane="0"/>

    <connection from="-15240373#1" to="-15240373#0" fromLane="0" toLane="0"/>

    <connection from="-15240373#2" to="-15240373#1" fromLane="0" toLane="0"/>

    <connection from="-15240373#3" to="-15240373#2" fromLane="0" toLane="0"/>

    <connection from="-15240373#4" to="-15240373#3" fromLane="0" toLane="0"/>

    <connection from="-15245482#0" to="30955822#0" fromLane="0" toLane="0"/>
    <connection from="-15245482#0" to="-233999572#2" fromLane="0" toLane="0"/>
    <connection from="-15245482#0" to="-217644146#1" fromLane="0" toLane="0"/>
    <connection from="-15245482#0" to="15245482#0" fromLane="0" toLane="0"/>

    <connection from="-15245482#1" to="-15245482#0" fromLane="0" toLane="0"/>

    <connection from="-15245482#2" to="-15245482#1" fromLane="0" toLane="0"/>

    <connection from="-15245482#3" to="-15245482#2" fromLane="0" toLane="0"/>

    <connection from="-18385008#0" to="123911189#0" fromLane="0" toLane="0"/>
    <connection from="-18385008#0" to="123911189#0" fromLane="1" toLane="1"/>
    <connection from="-18385008#0" to="18385008#0" fromLane="1" toLane="0"/>

    <connection from="-18385008#1" to="-18385008#0" fromLane="0" toLane="0"/>
    <connection from="-18385008#1" to="-18385008#0" fromLane="1" toLane="1"/>

    <connection from="-18385008#2" to="-18385008#1" fromLane="0" toLane="0"/>
    <connection from="-18385008#2" to="-18385008#1" fromLane="1" toLane="1"/>

    <connection from="-18385008#3" to="-18385008#2" fromLane="0" toLane="0"/>
    <connection from="-18385008#3" to="-18385008#2" fromLane="1" toLane="1"/>

    <connection from="-186631612#0" to="186631612#0" fromLane="0" toLane="0"/>

    <connection from="-186631612#1" to="-186631612#0" fromLane="0" toLane="0"/>

    <connection from="-186631612#2" to="122962417#0" fromLane="0" toLane="0"/>
    <connection from="-186631612#2" to="-186631612#1" fromLane="0" toLane="0"/>
    <connection from="-186631612#2" to="186631612#2" fromLane="0" toLane="0"/>

    <connection from="-186631612#3" to="-186631612#2" fromLane="0" toLane="0"/>

    <connection from="-193116150" to="-25361340" fromLane="0" toLane="0"/>

    <connection from="-193116151#0" to="-193116150" fromLane="0" toLane="0"/>

    <connection from="-193116151#1" to="-193116151#0" fromLane="0" toLane="0"/>

    <connection from="-193116151#2" to="-193116151#1" fromLane="0" toLane="0"/>

    <connection from="-193116151#3" to="-193116151#2" fromLane="0" toLane="0"/>

    <connection from="-197339886" to="-260944338" fromLane="0" toLane="0"/>

    <connection from="-197339887#0" to="-197339886" fromLane="0" toLane="0"/>

    <connection from="-197339887#1" to="-197339887#0" fromLane="0" toLane="0"/>

    <connection from="-201293692" to="-36730337" fromLane="0" toLane="0"/>

    <connection from="-201293693#0" to="-201293692" fromLane="0" toLane="0"/>

    <connection from="-201293693#1" to="-201293693#0" fromLane="0" toLane="0"/>

    <connection from="-21081120#0" to="-317000781#1" fromLane="0" toLane="0"/>

    <connection from="-21081120#1" to="-21081120#0" fromLane="0" toLane="0"/>

    <connection from="-21081120#2" to="-42919373#0" fromLane="0" toLane="0"/>
    <connection from="-21081120#2" to="-21081120#1" fromLane="0" toLane="0"/>
    <connection from="-21081120#2" to="42919373#1" fromLane="0" toLane="0"/>
    <connection from="-21081120#2" to="21081120#2" fromLane="0" toLane="0"/>

    <connection from="-21081120#3" to="-21081120#2" fromLane="0" toLane="0"/>

    <connection from="-21081120#4" to="-21081120#3" fromLane="0" toLane="0"/>

    <connection from="-217644146#0" to="-76334538" fromLane="0" toLane="0"/>

    <connection from="-217644146#1" to="-217644146#0" fromLane="0" toLane="0"/>

    <connection from="-219090534#0" to="-62382877" fromLane="0" toLane="0"/>

    <connection from="-219090534#1" to="-219090534#0" fromLane="0" toLane="0"/>

    <connection from="-23180033#0" to="-28842830#1" fromLane="0" toLane="0"/>
    <connection from="-23180033#0" to="23180032#0" fromLane="0" toLane="0"/>
    <connection from="-23180033#0" to="23180033#0" fromLane="0" toLane="0"/>

    <connection from="-23180033#1" to="-23180033#0" fromLane="0" toLane="0"/>

    <connection from="-232008578" to="-201293693#1" fromLane="0" toLane="0"/>

    <connection from="-232042787" to="-77615028" fromLane="0" toLane="0"/>

    <connection from="-233999099" to="-98304770" fromLane="0" toLane="0"/>

    <connection from="-233999572#0" to="-76333547" fromLane="0" toLane="0"/>

    <connection from="-233999572#1" to="-233999572#0" fromLane="0" toLane="0"/>

    <connection from="-233999572#2" to="-233999572#1" fromLane="0" toLane="0"/>

    <connection from="-234000028" to="-62212960" fromLane="0" toLane="0"/>

    <connection from="-244282080#0" to="244282080#0" fromLane="0" toLane="0"/>

    <connection from="-244282080#1" to="-244282080#0" fromLane="0" toLane="0"/>
    <connection from="-244282080#1" to="28842837#0" fromLane="0" toLane="0"/>
    <connection from="-244282080#1" to="244282080#1" fromLane="0" toLane="0"/>

    <connection from="-25361340" to="-51707744#2" fromLane="0" toLane="0"/>

    <connection from="-257702155#0" to="-81356832#2" fromLane="0" toLane="0"/>

    <connection from="-257702155#1" to="-257702155#0" fromLane="0" toLane="0"/>

    <connection from="-257702155#2" to="-257702155#1" fromLane="0" toLane="0"/>

    <connection from="-257702155#3" to="-257702155#2" fromLane="0" toLane="0"/>

    <connection from="-259716340" to="-62383934" fromLane="0" toLane="0"/>

    <connection from="-260944120" to="-75510901" fromLane="0" toLane="0"/>

    <connection from="-260944338" to="-143057430" fromLane="0" toLane="0"/>

    <connection from="-28321714#0" to="-62384624" fromLane="0" toLane="0"/>

    <connection from="-28321714#1" to="62384627#2" fromLane="0" toLane="0"/>
    <connection from="-28321714#1" to="-28321714#0" fromLane="0" toLane="0"/>
    <connection from="-28321714#1" to="-62384627#1" fromLane="0" toLane="0"/>
    <connection from="-28321714#1" to="28321714#1" fromLane="0" toLane="0"/>

    <connection from="-28321714#2" to="-28321714#1" fromLane="0" toLane="0"/>

    <connection from="-28656019#0" to="28656022#0" fromLane="0" toLane="0"/>
    <connection from="-28656019#0" to="28656019#0" fromLane="0" toLane="0"/>

    <connection from="-28656019#1" to="-28656019#0" fromLane="0" toLane="0"/>

    <connection from="-28656019#2" to="-28656019#1" fromLane="0" toLane="0"/>
    <connection from="-28656019#2" to="36729035#0" fromLane="0" toLane="0"/>
    <connection from="-28656019#2" to="28656019#2" fromLane="0" toLane="0"/>

    <connection from="-28656019#3" to="-28656019#2" fromLane="0" toLane="0"/>

    <connection from="-28842830#0" to="-37287290" fromLane="0" toLane="0"/>

    <connection from="-28842830#1" to="-28842830#0" fromLane="0" toLane="0"/>

    <connection from="-29064946#0" to="-317000784#1" fromLane="0" toLane="0"/>
    <connection from="-29064946#0" to="28408160#0" fromLane="0" toLane="1"/>
    <connection from="-29064946#0" to="29064946#0" fromLane="0" toLane="0"/>

    <connection from="-29064946#1" to="-29064946#0" fromLane="0" toLane="0"/>

    <connection from="-29186154#0" to="-37293912#1" fromLane="0" toLane="0"/>

    <connection from="-29186154#1" to="-29186154#0" fromLane="0" toLane="0"/>

    <connection from="-29186154#2" to="-29186154#1" fromLane="0" toLane="0"/>

    <connection from="-29186154#3" to="-29186154#2" fromLane="0" toLane="0"/>

    <connection from="-29186154#4" to="-29186154#3" fromLane="0" toLane="0"/>

    <connection from="-29186154#5" to="-29186154#4" fromLane="0" toLane="0"/>

    <connection from="-29186154#6" to="36729010#1" fromLane="0" toLane="0"/>
    <connection from="-29186154#6" to="-29186154#5" fromLane="0" toLane="0"/>
    <connection from="-29186154#6" to="-36729010#0" fromLane="0" toLane="0"/>
    <connection from="-29186154#6" to="29186154#6" fromLane="0" toLane="0"/>

    <connection from="-29186154#7" to="-29186154#6" fromLane="0" toLane="0"/>

    <connection from="-30097052#0" to="-70957864" fromLane="0" toLane="0"/>

    <connection from="-30097052#1" to="77893328#0" fromLane="0" toLane="0"/>
    <connection from="-30097052#1" to="-30097052#0" fromLane="0" toLane="0"/>
    <connection from="-30097052#1" to="30097052#1" fromLane="0" toLane="0"/>

    <connection from="-302021963#0" to="-82410880#2" fromLane="0" toLane="0"/>

    <connection from="-302021963#1" to="-302021963#0" fromLane="0" toLane="0"/>

    <connection from="-30528321#0" to="-36729030#1" fromLane="0" toLane="0"/>
    <connection from="-30528321#0" to="-76335649#1" fromLane="0" toLane="0"/>
    <connection from="-30528321#0" to="30528321#0" fromLane="0" toLane="0"/>

    <connection from="-30528321#1" to="-30528321#0" fromLane="0" toLane="0"/>

    <connection from="-30903129#0" to="30568275#0" fromLane="0" toLane="0"/>
    <connection from="-30903129#0" to="-333061573#2" fromLane="0" toLane="0"/>
    <connection from="-30903129#0" to="30903129#0" fromLane="0" toLane="0"/>

    <connection from="-30903129#1" to="-30903129#0" fromLane="0" toLane="0"/>

    <connection from="-30903129#2" to="-30903129#1" fromLane="0" toLane="0"/>

    <connection from="-30955822#0" to="-233999572#2" fromLane="0" toLane="0"/>
    <connection from="-30955822#0" to="-217644146#1" fromLane="0" toLane="0"/>
    <connection from="-30955822#0" to="15245482#0" fromLane="0" toLane="0"/>
    <connection from="-30955822#0" to="30955822#0" fromLane="0" toLane="0"/>

    <connection from="-30955822#1" to="-30955822#0" fromLane="0" toLane="0"/>

    <connection from="-30955822#2" to="-30955822#1" fromLane="0" toLane="0"/>

    <connection from="-310792148" to="-80727852#1" fromLane="0" toLane="0"/>
    <connection from="-310792148" to="310792148" fromLane="0" toLane="0"/>

    <connection from="-315605355" to="-315605356" fromLane="0" toLane="0"/>

    <connection from="-315605356" to="-143057426#1" fromLane="0" toLane="0"/>

    <connection from="-316713564" to="-332402667" fromLane="0" toLane="0"/>

    <connection from="-316713565" to="-36729012" fromLane="0" toLane="0"/>

    <connection from="-317000781#0" to="-317000782" fromLane="0" toLane="0"/>

    <connection from="-317000781#1" to="-317000781#0" fromLane="0" toLane="0"/>

    <connection from="-317000782" to="-29064946#1" fromLane="0" toLane="0"/>

    <connection from="-317000783" to="-344789082" fromLane="0" toLane="0"/>

    <connection from="-317000784#0" to="-317000783" fromLane="0" toLane="0"/>

    <connection from="-317000784#1" to="-317000784#0" fromLane="0" toLane="0"/>

    <connection from="-317000785" to="-30528321#1" fromLane="0" toLane="0"/>

    <connection from="-332402667" to="-21081120#4" fromLane="0" toLane="0"/>

    <connection from="-333061563" to="-333061574#3" fromLane="0" toLane="0"/>

    <connection from="-333061564" to="-81527785#1" fromLane="0" toLane="0"/>

    <connection from="-333061565" to="-572656872#1" fromLane="0" toLane="0"/>

    <connection from="-333061566" to="-333061564" fromLane="0" toLane="0"/>

    <connection from="-333061567#0" to="-333061566" fromLane="0" toLane="0"/>

    <connection from="-333061567#1" to="-333061567#0" fromLane="0" toLane="0"/>

    <connection from="-333061568" to="-333061567#1" fromLane="0" toLane="0"/>

    <connection from="-333061569" to="-333061572#1" fromLane="0" toLane="0"/>

    <connection from="-333061570" to="333061570" fromLane="0" toLane="0"/>

    <connection from="-333061571" to="-333061565" fromLane="0" toLane="0"/>

    <connection from="-333061572#0" to="-333061570" fromLane="0" toLane="0"/>

    <connection from="-333061572#1" to="-333061572#0" fromLane="0" toLane="0"/>

    <connection from="-333061573#0" to="-333061568" fromLane="0" toLane="0"/>

    <connection from="-333061573#1" to="-333061573#0" fromLane="0" toLane="0"/>

    <connection from="-333061573#2" to="-333061573#1" fromLane="0" toLane="0"/>

    <connection from="-333061574#0" to="-333061569" fromLane="0" toLane="0"/>

    <connection from="-333061574#1" to="-333061574#0" fromLane="0" toLane="0"/>

    <connection from="-333061574#2" to="-333061574#1" fromLane="0" toLane="0"/>
    <connection from="-333061574#2" to="9776916#0" fromLane="0" toLane="0"/>
    <connection from="-333061574#2" to="333061574#2" fromLane="0" toLane="0"/>

    <connection from="-333061574#3" to="-333061574#2" fromLane="0" toLane="0"/>

    <connection from="-337207932#0" to="-74307847" fromLane="0" toLane="0"/>

    <connection from="-337207932#1" to="-337207932#0" fromLane="0" toLane="0"/>

    <connection from="-34031654" to="-127104874" fromLane="0" toLane="0"/>

    <connection from="-342534666#0" to="-114557572" fromLane="0" toLane="0"/>

    <connection from="-342534666#1" to="-342534666#0" fromLane="0" toLane="0"/>

    <connection from="-342534666#2" to="-342534666#1" fromLane="0" toLane="0"/>
    <connection from="-342534666#2" to="342534666#2" fromLane="0" toLane="0"/>

    <connection from="-342534666#3" to="-342534666#2" fromLane="0" toLane="0"/>

    <connection from="-342717761" to="-342717764#1" fromLane="0" toLane="0"/>

    <connection from="-342717764#0" to="342717764#0" fromLane="0" toLane="0"/>

    <connection from="-342717764#1" to="-342717764#0" fromLane="0" toLane="0"/>

    <connection from="-344789062" to="-344789076" fromLane="0" toLane="0"/>

    <connection from="-344789070#0" to="-344789086#1" fromLane="0" toLane="0"/>

    <connection from="-344789070#1" to="-344789070#0" fromLane="0" toLane="0"/>

    <connection from="-344789076" to="-344789098" fromLane="0" toLane="0"/>

    <connection from="-344789082" to="-344789062" fromLane="0" toLane="0"/>

    <connection from="-344789086#0" to="-302021963#1" fromLane="0" toLane="0"/>

    <connection from="-344789086#1" to="-344789086#0" fromLane="0" toLane="0"/>

    <connection from="-344789092#0" to="-344789070#1" fromLane="0" toLane="0"/>

    <connection from="-344789092#1" to="-344789092#0" fromLane="0" toLane="0"/>

    <connection from="-344789098" to="-36729009" fromLane="0" toLane="0"/>

    <connection from="-346307810#0" to="-37265518#4" fromLane="0" toLane="0"/>

    <connection from="-346307810#1" to="-346307810#0" fromLane="0" toLane="0"/>

    <connection from="-36726220#0" to="-36729010#1" fromLane="0" toLane="0"/>

    <connection from="-36726220#1" to="-36726220#0" fromLane="0" toLane="0"/>

    <connection from="-36726220#2" to="36726221#0" fromLane="0" toLane="0"/>
    <connection from="-36726220#2" to="-36726220#1" fromLane="0" toLane="0"/>
    <connection from="-36726220#2" to="29400781#0" fromLane="0" toLane="0"/>
    <connection from="-36726220#2" to="36726220#2" fromLane="0" toLane="0"/>

    <connection from="-36726220#3" to="-36726220#2" fromLane="0" toLane="0"/>

    <connection from="-36726223#0" to="-62213050" fromLane="0" toLane="0"/>

    <connection from="-36726223#1" to="-36726223#0" fromLane="0" toLane="0"/>
    <connection from="-36726223#1" to="62212736#2" fromLane="0" toLane="1"/>
    <connection from="-36726223#1" to="36726223#1" fromLane="0" toLane="0"/>

    <connection from="-36726224" to="-36726223#1" fromLane="0" toLane="0"/>

    <connection from="-36729009" to="-gneE1" fromLane="0" toLane="0"/>
    <connection from="-36729009" to="36729009" fromLane="0" toLane="0"/>

    <connection from="-36729010#0" to="-128171761" fromLane="0" toLane="0"/>

    <connection from="-36729010#1" to="-29186154#5" fromLane="0" toLane="0"/>
    <connection from="-36729010#1" to="-36729010#0" fromLane="0" toLane="0"/>
    <connection from="-36729010#1" to="29186154#6" fromLane="0" toLane="0"/>
    <connection from="-36729010#1" to="36729010#1" fromLane="0" toLane="0"/>

    <connection from="-36729011#0" to="-316713564" fromLane="0" toLane="0"/>

    <connection from="-36729011#1" to="62212739#0" fromLane="0" toLane="0"/>
    <connection from="-36729011#1" to="-36729011#0" fromLane="0" toLane="0"/>
    <connection from="-36729011#1" to="36729011#1" fromLane="0" toLane="0"/>

    <connection from="-36729012" to="-36729011#1" fromLane="0" toLane="0"/>

    <connection from="-36729013#0" to="-186631612#3" fromLane="0" toLane="0"/>

    <connection from="-36729013#1" to="-36729013#0" fromLane="0" toLane="0"/>

    <connection from="-36729013#2" to="-36729013#1" fromLane="0" toLane="0"/>

    <connection from="-36729013#3" to="-36729013#2" fromLane="0" toLane="0"/>

    <connection from="-36729013#4" to="-36729013#3" fromLane="0" toLane="0"/>

    <connection from="-36729017" to="-36729013#4" fromLane="0" toLane="0"/>

    <connection from="-36729030#0" to="-18385008#3" fromLane="0" toLane="0"/>
    <connection from="-36729030#0" to="-18385008#3" fromLane="1" toLane="1"/>

    <connection from="-36729030#1" to="-36729030#0" fromLane="0" toLane="0"/>
    <connection from="-36729030#1" to="-36729030#0" fromLane="1" toLane="1"/>

    <connection from="-36729032#0" to="36729033#0" fromLane="0" toLane="0"/>

    <connection from="-36729032#1" to="-36729032#0" fromLane="0" toLane="0"/>

    <connection from="-36729033#0" to="36729032#0" fromLane="0" toLane="0"/>

    <connection from="-36729033#1" to="-36729033#0" fromLane="0" toLane="0"/>

    <connection from="-36729034" to="-42333036#1" fromLane="0" toLane="0"/>

    <connection from="-36729036#0" to="-86597190#1" fromLane="0" toLane="0"/>

    <connection from="-36729036#1" to="-36729036#0" fromLane="0" toLane="0"/>

    <connection from="-36729036#2" to="-36729036#1" fromLane="0" toLane="0"/>

    <connection from="-36729036#3" to="-36729036#2" fromLane="0" toLane="0"/>

    <connection from="-36729036#4" to="-36729036#3" fromLane="0" toLane="0"/>

    <connection from="-36729036#5" to="-36729036#4" fromLane="0" toLane="0"/>

    <connection from="-36729037#0" to="-127104868#1" fromLane="0" toLane="0"/>

    <connection from="-36729037#1" to="-36729037#0" fromLane="0" toLane="0"/>

    <connection from="-36729037#2" to="-36729037#1" fromLane="0" toLane="0"/>

    <connection from="-36729039#0" to="-75621805" fromLane="0" toLane="0"/>

    <connection from="-36729039#1" to="60753083#2" fromLane="0" toLane="0"/>
    <connection from="-36729039#1" to="-36729039#0" fromLane="0" toLane="0"/>
    <connection from="-36729039#1" to="-60753083#1" fromLane="0" toLane="0"/>
    <connection from="-36729039#1" to="36729039#1" fromLane="0" toLane="0"/>

    <connection from="-36729039#2" to="-36729039#1" fromLane="0" toLane="0"/>

    <connection from="-36729040" to="-60753083#2" fromLane="0" toLane="0"/>

    <connection from="-36730332#0" to="-74307851" fromLane="0" toLane="0"/>

    <connection from="-36730332#1" to="-36730332#0" fromLane="0" toLane="0"/>

    <connection from="-36730332#2" to="-36730332#1" fromLane="0" toLane="0"/>

    <connection from="-36730332#3" to="-36730332#2" fromLane="0" toLane="0"/>

    <connection from="-36730332#4" to="-36730332#3" fromLane="0" toLane="0"/>

    <connection from="-36730332#5" to="-36730332#4" fromLane="0" toLane="0"/>

    <connection from="-36730333" to="-36730332#5" fromLane="0" toLane="0"/>

    <connection from="-36730335#0" to="-127809159#3" fromLane="0" toLane="0"/>

    <connection from="-36730335#1" to="-36730336#0" fromLane="0" toLane="0"/>
    <connection from="-36730335#1" to="-36730335#0" fromLane="0" toLane="0"/>
    <connection from="-36730335#1" to="36730336#1" fromLane="0" toLane="0"/>
    <connection from="-36730335#1" to="36730335#1" fromLane="0" toLane="0"/>

    <connection from="-36730335#2" to="-36730335#1" fromLane="0" toLane="0"/>

    <connection from="-36730336#0" to="-74307844" fromLane="0" toLane="0"/>

    <connection from="-36730336#1" to="36730335#1" fromLane="0" toLane="0"/>
    <connection from="-36730336#1" to="-36730336#0" fromLane="0" toLane="0"/>
    <connection from="-36730336#1" to="-36730335#0" fromLane="0" toLane="0"/>
    <connection from="-36730336#1" to="36730336#1" fromLane="0" toLane="0"/>

    <connection from="-36730337" to="-36730336#1" fromLane="0" toLane="0"/>

    <connection from="-36730362#0" to="36730362#0" fromLane="0" toLane="0"/>

    <connection from="-36730362#1" to="-36730362#0" fromLane="0" toLane="0"/>

    <connection from="-37142649" to="166564262" fromLane="0" toLane="1"/>
    <connection from="-37142649" to="37142649" fromLane="0" toLane="0"/>

    <connection from="-37142650" to="-4243035#2" fromLane="0" toLane="0"/>

    <connection from="-37265518#0" to="-244282080#1" fromLane="0" toLane="0"/>

    <connection from="-37265518#1" to="-37265518#0" fromLane="0" toLane="0"/>
