<?xml version="1.0" encoding="UTF-8"?>
<!-- generated on 2022-09-26 15:22:41.472369 by generateContinuousRerouters.py v1_7_0+0000-714814baed
  options: -n helsinki.net.xml <doubleminus>end 600 -o rerouter.add.xml
-->
<additional xmlns:xsi="http://www.w3.org/2001/XMLSchema-instance" xsi:noNamespaceSchemaLocation="http://sumo.dlr.de/xsd/additional_file.xsd">
    <route id="-114554802#1_-114554802#0" edges="-114554802#1 -114554802#0 114554802#0 114554802#1 114554802#2 114554802#3 114554802#4 114554802#5 114554802#6 114554802#7 114554802#8 37293913#0 37293913#1 37293913#2 37293913#3 37293913#4 37293912#0"/>
    <route id="114554802#0_114554802#1" edges="114554802#0 114554802#1 114554802#2 114554802#3 114554802#4 114554802#5 114554802#6 114554802#7 114554802#8 37293913#0 37293913#1 37293913#2 37293913#3 37293913#4 37293912#0"/>
    <route id="-114554802#2_-114554802#1" edges="-114554802#2 -114554802#1 -114554802#0 114554802#0 114554802#1 114554802#2 114554802#3 114554802#4 114554802#5 114554802#6 114554802#7 114554802#8 37293913#0 37293913#1 37293913#2 37293913#3 37293913#4 37293912#0"/>
    <route id="114554802#1_114554802#2" edges="114554802#1 114554802#2 114554802#3 114554802#4 114554802#5 114554802#6 114554802#7 114554802#8 37293913#0 37293913#1 37293913#2 37293913#3 37293913#4 37293912#0"/>
    <route id="-114554802#3_-114554802#2" edges="-114554802#3 -114554802#2 -114554802#1 -114554802#0 114554802#0 114554802#1 114554802#2 114554802#3 114554802#4 114554802#5 114554802#6 114554802#7 114554802#8 37293913#0 37293913#1 37293913#2 37293913#3 37293913#4 37293912#0"/>
    <route id="114554802#2_114554802#3" edges="114554802#2 114554802#3 114554802#4 114554802#5 114554802#6 114554802#7 114554802#8 37293913#0 37293913#1 37293913#2 37293913#3 37293913#4 37293912#0"/>
    <route id="-114554802#4_-114554802#3" edges="-114554802#4 -114554802#3 -114554802#2 -114554802#1 -114554802#0 114554802#0 114554802#1 114554802#2 114554802#3 114554802#4 114554802#5 114554802#6 114554802#7 114554802#8 37293913#0 37293913#1 37293913#2 37293913#3 37293913#4 37293912#0"/>
    <route id="114554802#3_114554802#4" edges="114554802#3 114554802#4 114554802#5 114554802#6 114554802#7 114554802#8 37293913#0 37293913#1 37293913#2 37293913#3 37293913#4 37293912#0"/>
    <route id="-114554802#5_-114554802#4" edges="-114554802#5 -114554802#4 -114554802#3 -114554802#2 -114554802#1 -114554802#0 114554802#0 114554802#1 114554802#2 114554802#3 114554802#4 114554802#5 114554802#6 114554802#7 114554802#8 37293913#0 37293913#1 37293913#2 37293913#3 37293913#4 37293912#0"/>
    <route id="114554802#4_114554802#5" edges="114554802#4 114554802#5 114554802#6 114554802#7 114554802#8 37293913#0 37293913#1 37293913#2 37293913#3 37293913#4 37293912#0"/>
    <route id="-114554802#6_-114554802#5" edges="-114554802#6 -114554802#5 -114554802#4 -114554802#3 -114554802#2 -114554802#1 -114554802#0 114554802#0 114554802#1 114554802#2 114554802#3 114554802#4 114554802#5 114554802#6 114554802#7 114554802#8 37293913#0 37293913#1 37293913#2 37293913#3 37293913#4 37293912#0"/>
    <route id="114554802#5_114554802#6" edges="114554802#5 114554802#6 114554802#7 114554802#8 37293913#0 37293913#1 37293913#2 37293913#3 37293913#4 37293912#0"/>
    <route id="-114554802#7_-114554802#6" edges="-114554802#7 -114554802#6 -114554802#5 -114554802#4 -114554802#3 -114554802#2 -114554802#1 -114554802#0 114554802#0 114554802#1 114554802#2 114554802#3 114554802#4 114554802#5 114554802#6 114554802#7 114554802#8 37293913#0 37293913#1 37293913#2 37293913#3 37293913#4 37293912#0"/>
    <route id="114554802#6_114554802#7" edges="114554802#6 114554802#7 114554802#8 37293913#0 37293913#1 37293913#2 37293913#3 37293913#4 37293912#0"/>
    <route id="-114554802#8_-114554802#7" edges="-114554802#8 -114554802#7 -114554802#6 -114554802#5 -114554802#4 -114554802#3 -114554802#2 -114554802#1 -114554802#0 114554802#0 114554802#1 114554802#2 114554802#3 114554802#4 114554802#5 114554802#6 114554802#7 114554802#8 37293913#0 37293913#1 37293913#2 37293913#3 37293913#4 37293912#0"/>
    <route id="114554802#7_114554802#8" edges="114554802#7 114554802#8 37293913#0 37293913#1 37293913#2 37293913#3 37293913#4 37293912#0"/>
    <route id="-37293913#0_-114554802#8" edges="-37293913#0 -114554802#8 -114554802#7 -114554802#6 -114554802#5 -114554802#4 -114554802#3 -114554802#2 -114554802#1 -114554802#0 114554802#0 114554802#1 114554802#2 114554802#3 114554802#4 114554802#5 114554802#6 114554802#7 114554802#8 37293913#0 37293913#1 37293913#2 37293913#3 37293913#4 37293912#0"/>
    <route id="114554802#8_37293913#0" edges="114554802#8 37293913#0 37293913#1 37293913#2 37293913#3 37293913#4 37293912#0"/>
    <route id="-342534666#0_-114557572" edges="-342534666#0 -114557572 -23180033#1 -23180033#0"/>
    <route id="114557572_342534666#0" edges="114557572 342534666#0 342534666#1"/>
    <route id="-114557572_-23180033#1" edges="-114557572 -23180033#1 -23180033#0"/>
    <route id="23180033#1_114557572" edges="23180033#1 114557572 342534666#0 342534666#1"/>
    <route id="-122886921#1_-122886921#0" edges="-122886921#1 -122886921#0 122886923#0 122886923#1 122886923#2 122886923#3 316509065 316509063 29049210#0 29049210#1 51707741#0 51707741#1 51707741#2 51707741#3 51707741#4 51707741#5 34001456#0 34001456#1"/>
    <route id="122886921#0_122886921#1" edges="122886921#0 122886921#1 122886921#2"/>
    <route id="-122886921#0_122886923#0" edges="-122886921#0 122886923#0 122886923#1 122886923#2 122886923#3 316509065 316509063 29049210#0 29049210#1 51707741#0 51707741#1 51707741#2 51707741#3 51707741#4 51707741#5 34001456#0 34001456#1"/>
    <route id="25361336_122886921#0" edges="25361336 122886921#0 122886921#1 122886921#2"/>
    <route id="25361336_122886923#0" edges="25361336 122886923#0 122886923#1 122886923#2 122886923#3 316509065 316509063 29049210#0 29049210#1 51707741#0 51707741#1 51707741#2 51707741#3 51707741#4 51707741#5 34001456#0 34001456#1"/>
    <rerouter id="rr_25361336" edges="25361336">
        <interval begin="0" end="600">
            <routeProbReroute id="25361336_122886921#0" probability="50.0"/>
            <routeProbReroute id="25361336_122886923#0" probability="20.0"/>
        </interval>
    </rerouter>
    <route id="-122886921#2_-122886921#1" edges="-122886921#2 -122886921#1 -122886921#0 122886923#0 122886923#1 122886923#2 122886923#3 316509065 316509063 29049210#0 29049210#1 51707741#0 51707741#1 51707741#2 51707741#3 51707741#4 51707741#5 34001456#0 34001456#1"/>
    <route id="122886921#1_122886921#2" edges="122886921#1 122886921#2"/>
    <route id="122886921#2_-122886921#2" edges="122886921#2 -122886921#2 -122886921#1 -122886921#0 122886923#0 122886923#1 122886923#2 122886923#3 316509065 316509063 29049210#0 29049210#1 51707741#0 51707741#1 51707741#2 51707741#3 51707741#4 51707741#5 34001456#0 34001456#1"/>
    <route id="122886921#2_-129300238#1" edges="122886921#2 -129300238#1 -129300238#0 -129300233#1 -129300233#0 -129300244#1 -129300244#0 -129300241#2"/>
    <route id="122886921#2_-80727853#1" edges="122886921#2 -80727853#1 -80727853#0 -80727850#1 -80727850#0 -36726220#3 -36726220#2"/>
    <rerouter id="rr_122886921#2" edges="122886921#2">
        <interval begin="0" end="600">
            <routeProbReroute id="122886921#2_-122886921#2" probability="0"/>
            <routeProbReroute id="122886921#2_-129300238#1" probability="30.0"/>
            <routeProbReroute id="122886921#2_-80727853#1" probability="50.0"/>
        </interval>
    </rerouter>
    <route id="129300238#1_-122886921#2" edges="129300238#1 -122886921#2 -122886921#1 -122886921#0 122886923#0 122886923#1 122886923#2 122886923#3 316509065 316509063 29049210#0 29049210#1 51707741#0 51707741#1 51707741#2 51707741#3 51707741#4 51707741#5 34001456#0 34001456#1"/>
    <route id="129300238#1_-129300238#1" edges="129300238#1 -129300238#1 -129300238#0 -129300233#1 -129300233#0 -129300244#1 -129300244#0 -129300241#2"/>
    <route id="129300238#1_-80727853#1" edges="129300238#1 -80727853#1 -80727853#0 -80727850#1 -80727850#0 -36726220#3 -36726220#2"/>
    <rerouter id="rr_129300238#1" edges="129300238#1">
        <interval begin="0" end="600">
            <routeProbReroute id="129300238#1_-122886921#2" probability="20.0"/>
            <routeProbReroute id="129300238#1_-129300238#1" probability="0"/>
            <routeProbReroute id="129300238#1_-80727853#1" probability="30.0"/>
        </interval>
    </rerouter>
    <route id="80727853#1_-122886921#2" edges="80727853#1 -122886921#2 -122886921#1 -122886921#0 122886923#0 122886923#1 122886923#2 122886923#3 316509065 316509063 29049210#0 29049210#1 51707741#0 51707741#1 51707741#2 51707741#3 51707741#4 51707741#5 34001456#0 34001456#1"/>
    <route id="80727853#1_-129300238#1" edges="80727853#1 -129300238#1 -129300238#0 -129300233#1 -129300233#0 -129300244#1 -129300244#0 -129300241#2"/>
    <route id="80727853#1_-80727853#1" edges="80727853#1 -80727853#1 -80727853#0 -80727850#1 -80727850#0 -36726220#3 -36726220#2"/>
    <rerouter id="rr_80727853#1" edges="80727853#1">
        <interval begin="0" end="600">
            <routeProbReroute id="80727853#1_-122886921#2" probability="50.0"/>
            <routeProbReroute id="80727853#1_-129300238#1" probability="20.0"/>
            <routeProbReroute id="80727853#1_-80727853#1" probability="0"/>
        </interval>
    </rerouter>
    <route id="-122886922#1_-122886922#0" edges="-122886922#1 -122886922#0"/>
    <route id="122886922#0_122886922#1" edges="122886922#0 122886922#1 122886922#2 129300241#0 129300241#1"/>
    <route id="-122886922#0_-52656372#2" edges="-122886922#0 -52656372#2 -52656372#1 -52656372#0 52656372#0 52656372#1 52656372#2"/>
    <route id="-122886922#0_122886922#0" edges="-122886922#0 122886922#0 122886922#1 122886922#2 129300241#0 129300241#1"/>
    <route id="-122886922#0_30436421#0" edges="-122886922#0 30436421#0 30436421#1 82408453#0 82408453#1"/>
    <rerouter id="rr_-122886922#0" edges="-122886922#0">
        <interval begin="0" end="600">
            <routeProbReroute id="-122886922#0_-52656372#2" probability="50.0"/>
            <routeProbReroute id="-122886922#0_122886922#0" probability="0"/>
            <routeProbReroute id="-122886922#0_30436421#0" probability="30.0"/>
        </interval>
    </rerouter>
    <route id="315443482#1_-52656372#2" edges="315443482#1 -52656372#2 -52656372#1 -52656372#0 52656372#0 52656372#1 52656372#2"/>
    <route id="315443482#1_122886922#0" edges="315443482#1 122886922#0 122886922#1 122886922#2 129300241#0 129300241#1"/>
    <route id="315443482#1_30436421#0" edges="315443482#1 30436421#0 30436421#1 82408453#0 82408453#1"/>
    <rerouter id="rr_315443482#1" edges="315443482#1">
        <interval begin="0" end="600">
            <routeProbReroute id="315443482#1_-52656372#2" probability="20.0"/>
            <routeProbReroute id="315443482#1_122886922#0" probability="30.0"/>
            <routeProbReroute id="315443482#1_30436421#0" probability="50.0"/>
        </interval>
    </rerouter>
    <route id="52656372#2_-52656372#2" edges="52656372#2 -52656372#2 -52656372#1 -52656372#0 52656372#0 52656372#1 52656372#2"/>
    <route id="52656372#2_122886922#0" edges="52656372#2 122886922#0 122886922#1 122886922#2 129300241#0 129300241#1"/>
    <route id="52656372#2_30436421#0" edges="52656372#2 30436421#0 30436421#1 82408453#0 82408453#1"/>
    <rerouter id="rr_52656372#2" edges="52656372#2">
        <interval begin="0" end="600">
            <routeProbReroute id="52656372#2_-52656372#2" probability="0"/>
            <routeProbReroute id="52656372#2_122886922#0" probability="50.0"/>
            <routeProbReroute id="52656372#2_30436421#0" probability="20.0"/>
        </interval>
    </rerouter>
    <route id="-122886922#2_-122886922#1" edges="-122886922#2 -122886922#1 -122886922#0"/>
    <route id="122886922#1_122886922#2" edges="122886922#1 122886922#2 129300241#0 129300241#1"/>
    <route id="-129300241#0_-122886922#2" edges="-129300241#0 -122886922#2 -122886922#1 -122886922#0"/>
    <route id="122886922#2_129300241#0" edges="122886922#2 129300241#0 129300241#1"/>
    <route id="-122949520#1_-122949520#0" edges="-122949520#1 -122949520#0 122949522#0 122949522#1"/>
    <route id="122949520#0_122949520#1" edges="122949520#0 122949520#1 122949520#2 122949520#3 122949520#4 122949520#5"/>
    <route id="-122949520#0_122949522#0" edges="-122949520#0 122949522#0 122949522#1"/>
    <route id="-122949522#0_122949520#0" edges="-122949522#0 122949520#0 122949520#1 122949520#2 122949520#3 122949520#4 122949520#5"/>
    <route id="-122949520#2_-122949520#1" edges="-122949520#2 -122949520#1 -122949520#0 122949522#0 122949522#1"/>
    <route id="122949520#1_122949520#2" edges="122949520#1 122949520#2 122949520#3 122949520#4 122949520#5"/>
    <route id="-122949520#11_-122949520#10" edges="-122949520#11 -122949520#10 -122949520#9 -122949520#8 -122949520#7 -122949520#6"/>
    <route id="122949520#10_122949520#11" edges="122949520#10 122949520#11 122949520#12"/>
    <route id="-122949520#10_-122949520#9" edges="-122949520#10 -122949520#9 -122949520#8 -122949520#7 -122949520#6"/>
    <route id="122949520#9_122949520#10" edges="122949520#9 122949520#10 122949520#11 122949520#12"/>
    <route id="-122949520#12_-122949520#11" edges="-122949520#12 -122949520#11 -122949520#10 -122949520#9 -122949520#8 -122949520#7 -122949520#6"/>
    <route id="122949520#11_122949520#12" edges="122949520#11 122949520#12"/>
    <route id="122949520#12_-122949520#12" edges="122949520#12 -122949520#12 -122949520#11 -122949520#10 -122949520#9 -122949520#8 -122949520#7 -122949520#6"/>
    <route id="122949520#12_195828013#0" edges="122949520#12 195828013#0 195828013#1 195828013#2 195828013#3 195828013#4 326150486#0 326150486#1"/>
    <rerouter id="rr_122949520#12" edges="122949520#12">
        <interval begin="0" end="600">
            <routeProbReroute id="122949520#12_-122949520#12" probability="0"/>
            <routeProbReroute id="122949520#12_195828013#0" probability="20.0"/>
        </interval>
    </rerouter>
    <route id="30001902#6_-122949520#12" edges="30001902#6 -122949520#12 -122949520#11 -122949520#10 -122949520#9 -122949520#8 -122949520#7 -122949520#6"/>
    <route id="30001902#6_195828013#0" edges="30001902#6 195828013#0 195828013#1 195828013#2 195828013#3 195828013#4 326150486#0 326150486#1"/>
    <rerouter id="rr_30001902#6" edges="30001902#6">
        <interval begin="0" end="600">
            <routeProbReroute id="30001902#6_-122949520#12" probability="20.0"/>
            <routeProbReroute id="30001902#6_195828013#0" probability="50.0"/>
        </interval>
    </rerouter>
    <route id="-122949520#3_-122949520#2" edges="-122949520#3 -122949520#2 -122949520#1 -122949520#0 122949522#0 122949522#1"/>
    <route id="122949520#2_122949520#3" edges="122949520#2 122949520#3 122949520#4 122949520#5"/>
    <route id="-122949520#4_-122949520#3" edges="-122949520#4 -122949520#3 -122949520#2 -122949520#1 -122949520#0 122949522#0 122949522#1"/>
    <route id="122949520#3_122949520#4" edges="122949520#3 122949520#4 122949520#5"/>
    <route id="-122949520#5_-122949520#4" edges="-122949520#5 -122949520#4 -122949520#3 -122949520#2 -122949520#1 -122949520#0 122949522#0 122949522#1"/>
    <route id="122949520#4_122949520#5" edges="122949520#4 122949520#5"/>
    <route id="-122949520#6_-122949520#5" edges="-122949520#6 -122949520#5 -122949520#4 -122949520#3 -122949520#2 -122949520#1 -122949520#0 122949522#0 122949522#1"/>
    <route id="-122949520#6_114555768#2" edges="-122949520#6 114555768#2 114555768#3 114555764#0 114555764#1 114555769 114555766#0 114555766#1 114555765#0 114555765#1"/>
    <route id="-122949520#6_122949520#6" edges="-122949520#6 122949520#6 122949520#7 122949520#8 122949520#9 122949520#10 122949520#11 122949520#12"/>
    <rerouter id="rr_-122949520#6" edges="-122949520#6">
        <interval begin="0" end="600">
            <routeProbReroute id="-122949520#6_-122949520#5" probability="50.0"/>
            <routeProbReroute id="-122949520#6_114555768#2" probability="20.0"/>
            <routeProbReroute id="-122949520#6_122949520#6" probability="0"/>
        </interval>
    </rerouter>
    <route id="114555768#1_-122949520#5" edges="114555768#1 -122949520#5 -122949520#4 -122949520#3 -122949520#2 -122949520#1 -122949520#0 122949522#0 122949522#1"/>
    <route id="114555768#1_114555768#2" edges="114555768#1 114555768#2 114555768#3 114555764#0 114555764#1 114555769 114555766#0 114555766#1 114555765#0 114555765#1"/>
    <route id="114555768#1_122949520#6" edges="114555768#1 122949520#6 122949520#7 122949520#8 122949520#9 122949520#10 122949520#11 122949520#12"/>
    <rerouter id="rr_114555768#1" edges="114555768#1">
        <interval begin="0" end="600">
            <routeProbReroute id="114555768#1_-122949520#5" probability="30.0"/>
            <routeProbReroute id="114555768#1_114555768#2" probability="50.0"/>
            <routeProbReroute id="114555768#1_122949520#6" probability="20.0"/>
        </interval>
    </rerouter>
    <route id="122949520#5_-122949520#5" edges="122949520#5 -122949520#5 -122949520#4 -122949520#3 -122949520#2 -122949520#1 -122949520#0 122949522#0 122949522#1"/>
    <route id="122949520#5_114555768#2" edges="122949520#5 114555768#2 114555768#3 114555764#0 114555764#1 114555769 114555766#0 114555766#1 114555765#0 114555765#1"/>
    <route id="122949520#5_122949520#6" edges="122949520#5 122949520#6 122949520#7 122949520#8 122949520#9 122949520#10 122949520#11 122949520#12"/>
    <rerouter id="rr_122949520#5" edges="122949520#5">
        <interval begin="0" end="600">
            <routeProbReroute id="122949520#5_-122949520#5" probability="0"/>
            <routeProbReroute id="122949520#5_114555768#2" probability="30.0"/>
            <routeProbReroute id="122949520#5_122949520#6" probability="50.0"/>
        </interval>
    </rerouter>
    <route id="-122949520#7_-122949520#6" edges="-122949520#7 -122949520#6"/>
    <route id="122949520#6_122949520#7" edges="122949520#6 122949520#7 122949520#8 122949520#9 122949520#10 122949520#11 122949520#12"/>
    <route id="-122949520#8_-122949520#7" edges="-122949520#8 -122949520#7 -122949520#6"/>
    <route id="122949520#7_122949520#8" edges="122949520#7 122949520#8 122949520#9 122949520#10 122949520#11 122949520#12"/>
    <route id="-122949520#9_-122949520#8" edges="-122949520#9 -122949520#8 -122949520#7 -122949520#6"/>
    <route id="122949520#8_122949520#9" edges="122949520#8 122949520#9 122949520#10 122949520#11 122949520#12"/>
    <route id="-122949522#1_-122949522#0" edges="-122949522#1 -122949522#0 122949520#0 122949520#1 122949520#2 122949520#3 122949520#4 122949520#5"/>
    <route id="122949522#0_122949522#1" edges="122949522#0 122949522#1"/>
    <route id="-122949524#2_-122949522#1" edges="-122949524#2 -122949522#1 -122949522#0 122949520#0 122949520#1 122949520#2 122949520#3 122949520#4 122949520#5"/>
    <route id="-122949524#2_-122949524#1" edges="-122949524#2 -122949524#1 -122949524#0"/>
    <route id="-122949524#2_122949524#2" edges="-122949524#2 122949524#2 122949524#3 -122949524#3 -122949524#2"/>
    <rerouter id="rr_-122949524#2" edges="-122949524#2">
        <interval begin="0" end="600">
            <routeProbReroute id="-122949524#2_-122949522#1" probability="20.0"/>
            <routeProbReroute id="-122949524#2_-122949524#1" probability="50.0"/>
            <routeProbReroute id="-122949524#2_122949524#2" probability="0"/>
        </interval>
    </rerouter>
    <route id="122949522#1_-122949522#1" edges="122949522#1 -122949522#1 -122949522#0 122949520#0 122949520#1 122949520#2 122949520#3 122949520#4 122949520#5"/>
    <route id="122949522#1_-122949524#1" edges="122949522#1 -122949524#1 -122949524#0"/>
    <route id="122949522#1_122949524#2" edges="122949522#1 122949524#2 122949524#3 -122949524#3 -122949524#2"/>
    <rerouter id="rr_122949522#1" edges="122949522#1">
        <interval begin="0" end="600">
            <routeProbReroute id="122949522#1_-122949522#1" probability="0"/>
            <routeProbReroute id="122949522#1_-122949524#1" probability="20.0"/>
            <routeProbReroute id="122949522#1_122949524#2" probability="30.0"/>
        </interval>
    </rerouter>
    <route id="122949524#1_-122949522#1" edges="122949524#1 -122949522#1 -122949522#0 122949520#0 122949520#1 122949520#2 122949520#3 122949520#4 122949520#5"/>
    <route id="122949524#1_-122949524#1" edges="122949524#1 -122949524#1 -122949524#0"/>
    <route id="122949524#1_122949524#2" edges="122949524#1 122949524#2 122949524#3 -122949524#3 -122949524#2"/>
    <rerouter id="rr_122949524#1" edges="122949524#1">
        <interval begin="0" end="600">
            <routeProbReroute id="122949524#1_-122949522#1" probability="30.0"/>
            <routeProbReroute id="122949524#1_-122949524#1" probability="0"/>
            <routeProbReroute id="122949524#1_122949524#2" probability="50.0"/>
        </interval>
    </rerouter>
    <route id="-122949524#1_-122949524#0" edges="-122949524#1 -122949524#0"/>
    <route id="122949524#0_122949524#1" edges="122949524#0 122949524#1"/>
    <route id="-122949524#0_122949524#0" edges="-122949524#0 122949524#0 122949524#1"/>
    <route id="-122949524#0_30001816#0" edges="-122949524#0 30001816#0 30001816#1 114556263"/>
    <route id="-122949524#0_30001818#0" edges="-122949524#0 30001818#0 30001818#1 36729014#0 36729014#1 36729014#2 30001902#0 30001902#1 30001902#2 30001902#3 30001902#4 30001902#5 30001902#6"/>
    <rerouter id="rr_-122949524#0" edges="-122949524#0">
        <interval begin="0" end="600">
            <routeProbReroute id="-122949524#0_122949524#0" probability="0"/>
            <routeProbReroute id="-122949524#0_30001816#0" probability="30.0"/>
            <routeProbReroute id="-122949524#0_30001818#0" probability="50.0"/>
        </interval>
    </rerouter>
    <route id="114555765#1_122949524#0" edges="114555765#1 122949524#0 122949524#1"/>
    <route id="114555765#1_30001816#0" edges="114555765#1 30001816#0 30001816#1 114556263"/>
    <route id="114555765#1_30001818#0" edges="114555765#1 30001818#0 30001818#1 36729014#0 36729014#1 36729014#2 30001902#0 30001902#1 30001902#2 30001902#3 30001902#4 30001902#5 30001902#6"/>
    <rerouter id="rr_114555765#1" edges="114555765#1">
        <interval begin="0" end="600">
            <routeProbReroute id="114555765#1_122949524#0" probability="30.0"/>
            <routeProbReroute id="114555765#1_30001816#0" probability="50.0"/>
            <routeProbReroute id="114555765#1_30001818#0" probability="20.0"/>
        </interval>
    </rerouter>
    <route id="-122949524#3_-122949524#2" edges="-122949524#3 -122949524#2"/>
    <route id="122949524#2_122949524#3" edges="122949524#2 122949524#3 -122949524#3 -122949524#2"/>
    <route id="-37290602_-122950930" edges="-37290602 -122950930 -128562363 -81924145#4 -81924145#3 -81924145#2 -81924145#1 -81924145#0 -81924134#1 -81924134#0"/>
    <route id="122950930_37290602" edges="122950930 37290602"/>
    <route id="-122950930_-128562363" edges="-122950930 -128562363 -81924145#4 -81924145#3 -81924145#2 -81924145#1 -81924145#0 -81924134#1 -81924134#0"/>
    <route id="128562363_122950930" edges="128562363 122950930 37290602"/>
    <route id="-122962417#1_-122962417#0" edges="-122962417#1 -122962417#0"/>
    <route id="122962417#0_122962417#1" edges="122962417#0 122962417#1 -122962417#1 -122962417#0"/>
    <route id="-122962417#0_-186631612#1" edges="-122962417#0 -186631612#1 -186631612#0 186631612#0 186631612#1"/>
    <route id="-122962417#0_122962417#0" edges="-122962417#0 122962417#0 122962417#1 -122962417#1 -122962417#0"/>
    <route id="-122962417#0_186631612#2" edges="-122962417#0 186631612#2 186631612#3 36729013#0 36729013#1 36729013#2 36729013#3 36729013#4 36729017"/>
    <rerouter id="rr_-122962417#0" edges="-122962417#0">
        <interval begin="0" end="600">
            <routeProbReroute id="-122962417#0_-186631612#1" probability="30.0"/>
            <routeProbReroute id="-122962417#0_122962417#0" probability="0"/>
            <routeProbReroute id="-122962417#0_186631612#2" probability="20.0"/>
        </interval>
    </rerouter>
    <route id="-186631612#2_-186631612#1" edges="-186631612#2 -186631612#1 -186631612#0 186631612#0 186631612#1"/>
    <route id="-186631612#2_122962417#0" edges="-186631612#2 122962417#0 122962417#1 -122962417#1 -122962417#0"/>
    <route id="-186631612#2_186631612#2" edges="-186631612#2 186631612#2 186631612#3 36729013#0 36729013#1 36729013#2 36729013#3 36729013#4 36729017"/>
    <rerouter id="rr_-186631612#2" edges="-186631612#2">
        <interval begin="0" end="600">
            <routeProbReroute id="-186631612#2_-186631612#1" probability="50.0"/>
            <routeProbReroute id="-186631612#2_122962417#0" probability="30.0"/>
            <routeProbReroute id="-186631612#2_186631612#2" probability="0"/>
        </interval>
    </rerouter>
    <route id="186631612#1_-186631612#1" edges="186631612#1 -186631612#1 -186631612#0 186631612#0 186631612#1"/>
    <route id="186631612#1_122962417#0" edges="186631612#1 122962417#0 122962417#1 -122962417#1 -122962417#0"/>
    <route id="186631612#1_186631612#2" edges="186631612#1 186631612#2 186631612#3 36729013#0 36729013#1 36729013#2 36729013#3 36729013#4 36729017"/>
    <rerouter id="rr_186631612#1" edges="186631612#1">
        <interval begin="0" end="600">
            <routeProbReroute id="186631612#1_-186631612#1" probability="0"/>
            <routeProbReroute id="186631612#1_122962417#0" probability="20.0"/>
            <routeProbReroute id="186631612#1_186631612#2" probability="50.0"/>
        </interval>
    </rerouter>
    <route id="-123412755#1_-123412755#0" edges="-123412755#1 -123412755#0"/>
    <route id="123412755#0_123412755#1" edges="123412755#0 123412755#1 59803646 -59803646 -123412755#1 -123412755#0"/>
    <route id="-123412755#0_-81152596#1" edges="-123412755#0 -81152596#1 -81152596#0 -81152594#1 -81152594#0 -81152592#1 -81152592#0 -81152593 -81152599#3 -81152599#2 -81152599#1 -81152599#0 -81152598 -36729040 -60753083#2"/>
    <route id="-123412755#0_123412755#0" edges="-123412755#0 123412755#0 123412755#1 59803646 -59803646 -123412755#1 -123412755#0"/>
    <route id="-123412755#0_81152596#2" edges="-123412755#0 81152596#2 81152596#3 81152597 81152595#0 81152595#1"/>
    <rerouter id="rr_-123412755#0" edges="-123412755#0">
        <interval begin="0" end="600">
            <routeProbReroute id="-123412755#0_-81152596#1" probability="30.0"/>
            <routeProbReroute id="-123412755#0_123412755#0" probability="0"/>
            <routeProbReroute id="-123412755#0_81152596#2" probability="20.0"/>
        </interval>
    </rerouter>
    <route id="-81152596#2_-81152596#1" edges="-81152596#2 -81152596#1 -81152596#0 -81152594#1 -81152594#0 -81152592#1 -81152592#0 -81152593 -81152599#3 -81152599#2 -81152599#1 -81152599#0 -81152598 -36729040 -60753083#2"/>
    <route id="-81152596#2_123412755#0" edges="-81152596#2 123412755#0 123412755#1 59803646 -59803646 -123412755#1 -123412755#0"/>
    <route id="-81152596#2_81152596#2" edges="-81152596#2 81152596#2 81152596#3 81152597 81152595#0 81152595#1"/>
    <rerouter id="rr_-81152596#2" edges="-81152596#2">
        <interval begin="0" end="600">
            <routeProbReroute id="-81152596#2_-81152596#1" probability="50.0"/>
            <routeProbReroute id="-81152596#2_123412755#0" probability="30.0"/>
            <routeProbReroute id="-81152596#2_81152596#2" probability="0"/>
        </interval>
    </rerouter>
    <route id="81152596#1_-81152596#1" edges="81152596#1 -81152596#1 -81152596#0 -81152594#1 -81152594#0 -81152592#1 -81152592#0 -81152593 -81152599#3 -81152599#2 -81152599#1 -81152599#0 -81152598 -36729040 -60753083#2"/>
    <route id="81152596#1_123412755#0" edges="81152596#1 123412755#0 123412755#1 59803646 -59803646 -123412755#1 -123412755#0"/>
    <route id="81152596#1_81152596#2" edges="81152596#1 81152596#2 81152596#3 81152597 81152595#0 81152595#1"/>
    <rerouter id="rr_81152596#1" edges="81152596#1">
        <interval begin="0" end="600">
            <routeProbReroute id="81152596#1_-81152596#1" probability="0"/>
            <routeProbReroute id="81152596#1_123412755#0" probability="20.0"/>
            <routeProbReroute id="81152596#1_81152596#2" probability="50.0"/>
        </interval>
    </rerouter>
    <route id="-59803646_-123412755#1" edges="-59803646 -123412755#1 -123412755#0"/>
    <route id="123412755#1_59803646" edges="123412755#1 59803646 -59803646 -123412755#1 -123412755#0"/>
    <route id="-123635329#1_-123635329#0" edges="-123635329#1 -123635329#0"/>
    <route id="123635329#0_123635329#1" edges="123635329#0 123635329#1 82410880#0"/>
    <route id="-123635329#0_123635329#0" edges="-123635329#0 123635329#0 123635329#1 82410880#0"/>
    <route id="-123635329#0_37287290" edges="-123635329#0 37287290 28842830#0 28842830#1"/>
    <route id="-123635329#0_82410875#0" edges="-123635329#0 82410875#0 82410875#1 4236417#0 4236417#1 82410883#0 82410883#1 82410885#0 82410885#1 82410885#2"/>
    <rerouter id="rr_-123635329#0" edges="-123635329#0">
        <interval begin="0" end="600">
            <routeProbReroute id="-123635329#0_123635329#0" probability="0"/>
            <routeProbReroute id="-123635329#0_37287290" probability="30.0"/>
            <routeProbReroute id="-123635329#0_82410875#0" probability="20.0"/>
        </interval>
    </rerouter>
    <route id="-37287290_123635329#0" edges="-37287290 123635329#0 123635329#1 82410880#0"/>
    <route id="-37287290_37287290" edges="-37287290 37287290 28842830#0 28842830#1"/>
    <route id="-37287290_82410875#0" edges="-37287290 82410875#0 82410875#1 4236417#0 4236417#1 82410883#0 82410883#1 82410885#0 82410885#1 82410885#2"/>
    <rerouter id="rr_-37287290" edges="-37287290">
        <interval begin="0" end="600">
            <routeProbReroute id="-37287290_123635329#0" probability="20.0"/>