<configuration>
	<input>
		<net-file value="helsinki.net.xml"/>
		<route-files value="130vehicle.rou.xml"/>
		<additional-files value="Detectors.add.xml,vtypes.add.xml"/>
	</input>
	<time>
		<begin value="0"/>
		<end value="600"/>
	</time>
    <report>
        <verbose value="true"/>
        <log value="test.log"/>
        <duration-log.statistics value="true"/>
        <no-step-log value="false"/>
    </report>
</configuration>