<?xml version="1.0" encoding="UTF-8"?>

<!-- generated on 10/11/22 11:42:00 by Eclipse SUMO duarouter Version 1.8.0
<configuration xmlns:xsi="http://www.w3.org/2001/XMLSchema-instance" xsi:noNamespaceSchemaLocation="http://sumo.dlr.de/xsd/duarouterConfiguration.xsd">

    <input>
        <net-file value="helsinki.net.xml"/>
        <route-files value="trips.trips.xml"/>
    </input>

    <output>
        <output-file value="test.rou.xml"/>
        <alternatives-output value="test.rou.alt.xml"/>
    </output>

    <time>
        <begin value="0"/>
        <end value="2.0"/>
    </time>

    <report>
        <no-warnings value="true"/>
        <ignore-errors value="true"/>
        <no-step-log value="true"/>
    </report>

</configuration>
-->

<routes xmlns:xsi="http://www.w3.org/2001/XMLSchema-instance" xsi:noNamespaceSchemaLocation="http://sumo.dlr.de/xsd/routes_file.xsd">
    <vehicle id="0.0" depart="0.00" type="vfn">
        <route edges="37293912#1 29186154#0 29186154#1 29186154#2 29186154#3 29186154#4 29186154#5"/>
    </vehicle>
    <vehicle id="1.0" depart="0.00" type="vfn">
        <route edges="30001818#0 30001818#1 36729014#0 36729014#1 36729014#2"/>
    </vehicle>
    <vehicle id="1" depart="0.01">
        <route edges="127809157 127809159#0 127809159#1 127809159#2 127809159#3 36730335#0 36730336#1 36730337 201293692 201293693#0 201293693#1 232008578 74307851 36730332#0 36730332#1 36730332#2 36730332#3 36730332#4 36730332#5 36730333 75384651#0 75384651#1 74307865#0 74307865#1 74307865#2 143057426#0 143057426#1 315605356 315605355 4243036#0 4243036#1 4243036#2 4243036#3 4243036#4 4243036#5 4243036#6 4243036#7 62384623 62384620 62384625 81356832#0 81356832#1 81356832#2 257702155#0 257702155#1 257702155#2 257702155#3 81356843"/>
    </vehicle>
    <vehicle id="2" depart="0.02">
        <route edges="122949520#9 122949520#10 122949520#11 122949520#12 195828013#0 195828013#1 195828013#2 195828013#3 195828013#4 326150486#0 326150486#1 36729028#2 36729029#0 36729029#1 36729029#2 36729029#3 193134986#0 193134986#1 193134984 193134985 193134988#0 193134988#1 193134988#2 28408160#0 28408160#1 193139551 193139537 193139533 193139549 193139529 193139541 193139554#0 193139554#1 36729031 30528321#0 30528321#1 317000785 97129664 97129661#0 97129661#1 97129661#2 97129661#3 -81924137#2 -77893327#2 -77893327#1 -77893327#0 -77893340 -77893335 -77893331 -77893344#3 -77893344#2 -77893344#1 -77893344#0 -85247773 -85247774#1 -85247774#0 -123905592 -77893328#1 -77893328#0 30097052#1 85247849 60738729#0 60738729#1 -60754210#1 -60754210#0 -60754212 -60754208 -60754205#1 -60754205#0 -60754207 -60754209#1"/>
    </vehicle>
    <vehicle id="3" depart="0.03">
        <route edges="114555767#5 114555768#0 114555768#1 122949520#6 122949520#7 122949520#8 122949520#9 122949520#10 122949520#11 122949520#12 195828013#0 195828013#1 195828013#2 195828013#3 195828013#4 326150486#0 326150486#1 36729028#2 36729029#0 36729029#1 36729029#2 36729029#3 193134986#0 193134986#1 193134984 193134985 193134988#0 193134988#1 193134988#2 28408160#0 28408160#1 193139551 193139537 193139533 193139549 193139529 193139541 193139554#0 193139554#1 36729031 -36729030#1 -36729030#0 -18385008#3 -18385008#2 -18385008#1 -18385008#0 123911189#0 123911189#1 123911189#2 123911189#3 123911189#4 123911189#5 25614338#0 25614338#1 77615451#0 77615451#1 77615449 245187834 26692016 77615448#0 77615448#1 30528320#0 30528320#1 30602647 194388451#0 194388451#1 194388451#2 264777229 62383933 149124872 193141641 81796218#0 81796218#1 81796218#2 81796218#3 74307845 193146008#0 193146008#1 75385584 85247916 74307852#0 74307852#1 -4243036#6 -4243036#5 -4243036#4 -4243036#3 -4243036#2 -4243036#1 194850767#2 194850767#3 75507914 75507913 75507915 74307849 74307860#0 74307860#1 76355638"/>
    </vehicle>
    <vehicle id="5" depart="0.05">
        <route edges="42333036#1 36729034 54818681#1 54818681#2 54821945#0 54821945#1 123901490 86597190#0 86597190#1 36729036#0 36729036#1 36729036#2 36729036#3 36729036#4 36729036#5 -80715861#2 -80715861#1 -80715861#0 -80715863#3 -80715863#2 -80715863#1 -80715863#0 -80715855#5 -80715855#4 -80715855#3 -80715855#2 -80715855#1 -80715855#0 -80715860 -80715865#2 -80715865#1 -80715865#0 80715865#0 80715865#1"/>
    </vehicle>
    <vehicle id="6" depart="0.06">
        <route edges="51707744#0 51707744#1 51707744#2 25361340 193116150 193116151#0 193116151#1 193116151#2 193116151#3 -193116151#3 -193116151#2 -193116151#1 -193116151#0 -193116150 -25361340 -51707744#2 -51707744#1 -51707744#0 25361336 122886921#0 122886921#1 122886921#2 -80727853#1 -80727853#0 -80727850#1 -80727850#0 -36726220#3 -36726220#2 -36726220#1 -36726220#0 -36729010#1 -36729010#0 -128171761 -62200559#1 -62200559#0 -316713565 -36729012 -36729011#1 -36729011#0 -316713564 -332402667 -21081120#4 -21081120#3 -21081120#2 -21081120#1 -21081120#0 -317000781#1 -317000781#0 -317000782 -29064946#1 -29064946#0 -317000784#1 -317000784#0 -317000783 -344789082 -344789062 -344789076 -344789098 -36729009 -gneE1 -344789092#1 -344789092#0 -344789070#1 -344789070#0 -344789086#1 -344789086#0 -302021963#1 -302021963#0 -82410880#2 -82410880#1 82410880#1 82410880#2 302021963#0"/>
    </vehicle>
    <vehicle id="7" depart="0.07">
        <route edges="122949522#1 -122949522#1 -122949522#0 122949520#0 122949520#1 122949520#2 122949520#3 122949520#4 122949520#5 122949520#6 122949520#7 122949520#8 122949520#9 122949520#10 122949520#11 122949520#12 195828013#0 195828013#1 195828013#2 195828013#3 195828013#4 326150486#0 326150486#1 36729028#2 36729029#0 36729029#1 36729029#2 36729029#3 193134986#0 193134986#1 193134984 193134985 193134988#0 193134988#1 193134988#2 28408160#0 28408160#1 193139551 193139537 193139533 193139549 193139529 193139541 193139554#0 193139554#1 36729031 -36729030#1 -36729030#0 -18385008#3 -18385008#2 -18385008#1 -18385008#0 123911189#0 123911189#1 123911189#2 123911189#3 123911189#4 123911189#5 25614338#0 25614338#1 77615451#0 77615451#1 77615449 245187834 26692016 77615448#0 77615448#1 30528320#0 30528320#1 30602647 194388451#0 194388451#1 194388451#2 264777229 62383933 149124872 193141641 81796218#0 81796218#1 81796218#2 81796218#3 74307845 193146008#0 193146008#1 75385584 85247916 74307852#0 74307852#1 -4243036#6 -4243036#5 -4243036#4 -4243036#3 -4243036#2 -4243036#1 -4243036#0 -315605355 -315605356 -143057426#1 -143057426#0 -74307865#2 -74307865#1 -74307865#0 -75384651#1 -75384651#0 -36730333 -36730332#5 -36730332#4 -36730332#3 -36730332#2 -36730332#1 -36730332#0 -74307851 -232008578 -201293693#1 -201293693#0 -201293692 -36730337 -36730336#1 -36730335#0 -127809159#3 -127809159#2 -127809159#1 -127809159#0"/>
    </vehicle>
    <vehicle id="8" depart="0.08">
        <route edges="37287287 8014829#4 8014829#5 8014829#6 8014829#7 8014829#8 -37290602 -122950930 -128562363 -81924145#4 -81924145#3 -81924145#2 -81924145#1 -81924145#0 -81924134#1 -81924134#0 -82410880#0 -123635329#1 -123635329#0 82410875#0 82410875#1 4236417#0 4236417#1 82410883#0 82410883#1 82410885#0 82410885#1 82410885#2 36729035#0 36729035#1 36729035#2 196602996 196602997#0 196602997#1 41454600#0 41454600#1 123901490 86597190#0 86597190#1 36729036#0 36729036#1 36729036#2 36729036#3 36729036#4 36729036#5 80715861#3 80715861#4 70957866 70957864 30097052#0 30097052#1 85247849 60738729#0 60738729#1 -60754210#1 -60754210#0 -60754212 -60754208 -60754205#1 -60754205#0 -60754207 -60754209#1 -60754209#0 -60754211 -60754206 -36729039#2 -36729039#1 -36729039#0"/>
    </vehicle>
    <vehicle id="9" depart="0.09">
        <route edges="143057426#0 143057426#1 315605356 315605355 4243036#0 4243036#1 4243036#2 4243036#3 4243036#4 4243036#5 4243036#6 4243036#7 62384623 62384620 62384625 81356832#0 81356832#1 81356832#2 257702155#0 257702155#1 257702155#2 257702155#3 81356843 81356836#0 81356836#1 81356836#2 81356841#0 81356841#1 62384622 62384624 28321714#0 -62384627#1 -62384627#0 -62382876 -62382879 -62384619#1 -62384619#0 -219090534#1 -219090534#0 -62382877 -62382878#1 -62382878#0 -62382880#1 -62382880#0 -62382881 -7921561#1 -7921561#0 -62382995#1 -62382995#0 -81241337 -81241338 -60738728 -60738729#3 -60738729#2 -60738729#1 -60738729#0 -85247849 -30097052#1 -30097052#0 -70957864 -70957866 -80715861#4 -80715861#3 -80715861#2 -80715861#1 -80715861#0 -80715863#3 -80715863#2 -80715863#1 -80715863#0 -80715855#5 -80715855#4 -80715855#3 -80715855#2 -80715855#1 -80715855#0 -80715860 -80715865#2 80715865#2 80715860 80715855#0 80715855#1 80715855#2 80715855#3 80715855#4 80715855#5"/>
    </vehicle>
    <vehicle id="10" depart="0.10">
        <route edges="82410885#0 82410885#1 82410885#2 36729035#0 36729035#1 36729035#2 196602996 196602997#0 196602997#1 41454600#0 41454600#1 -54821945#1 -54821945#0 -54818681#2 -54818681#1 -54818681#0 -54818682#1 -54818682#0 -77893337#2 77893344#2 77893344#3 77893331"/>
    </vehicle>
    <vehicle id="11" depart="0.11">
        <route edges="234001132 332402672#0 332402672#1 234001131 132422343 62212740 332402673#0 332402673#1 332402673#2 62212739#0 62212739#1 332402669#0 332402669#1 332402669#2 332402669#3 234002366 332402670#0 332402670#1 81522820#0 81522820#1 81522820#2 234002842#0 234002842#1 332402668#0 332402668#1 332399560#0 332399560#1 332399559 332399561#0 332399561#1 114554764#2 114554757 114555282 114555280 114555281#0 114555281#1 81527786 114555279 316508912 316508913 34031133#0 34031133#1 572656879#0 572656879#1 34031136 114555485#0 114555485#1 114555487 114555484 231158430#0 231158430#1 122948858#0 122948858#1 114555767#0 114555767#1 114555767#2 114555767#3 114555767#4 114555767#5 114555768#0 114555768#1 114555768#2 114555768#3 114555764#0 114555764#1 114555769 114555766#0 114555766#1 114555765#0 114555765#1 30001816#0 30001816#1 114556263"/>
    </vehicle>
    <vehicle id="12" depart="0.12">
        <route edges="30528384#1 187794587 187794594 187794598 30529424 28775991#0 28775991#1 28775991#2 258783043#0 258783043#1 4236349#0 4236349#1 230989021 232043439 744383200 230989020#0 230989020#1 77615452 18385008#0 18385008#1 18385008#2 18385008#3 36729030#0 36729030#1 -76335649#1 -76335649#0 -76335031 -233999099 -98304770 -62212961#1 -62212961#0 -15245482#3 -15245482#2 -15245482#1 -15245482#0 -217644146#1 -217644146#0 -76334538 -76334539#2 -76334539#1 -76334539#0 -42919373#2 -42919373#1 -42919373#0 -42919372 -42919371 -42919374#2 -42919374#1 -42919374#0 -126902357#1 -126902357#0 -42919375 -42919376#1 -42919376#0 -126902358 -30903129#2 -30903129#1 -30903129#0 -333061573#2 -333061573#1 -333061573#0 -333061568 -333061567#1 -333061567#0 -333061566 -333061564 -81527785#1 -81527785#0 -333061571 -333061565 -572656872#1 -572656872#0 572656872#0 572656872#1 333061565 333061571"/>
    </vehicle>
    <vehicle id="13" depart="0.13">
        <route edges="81152592#0 81152592#1 81152594#0 81152594#1 81152596#0 81152596#1 -81152596#1 -81152596#0 -81152594#1 -81152594#0 -81152592#1 -81152592#0 -81152593 -81152599#3 -81152599#2 -81152599#1 -81152599#0 -81152598 -36729040 -60753083#2 36729039#1 36729039#2 60754206 60754211 60754209#0 60754209#1 60754207 60754205#0 60754205#1 60754208 60754212 60754210#0 60754210#1 60738729#2 60738729#3 60738728 81241338 81241337 62382995#0 62382995#1 62382995#2 143057430 260944338 197339886 197339887#0 197339887#1 37498070 7921261 62384089 62384084 62384086#0 62384086#1 62384086#2 62384086#3 62384088 62384087 62384085#0 62384085#1 -62383932#1 -62383932#0 -62383930#3 -62383930#2 -62383930#1 -62383930#0 -62383931 -259716340 -62383934 -34031654 -127104874 127104874"/>
    </vehicle>
    <vehicle id="14" depart="0.14">
        <route edges="76354131#1 38156743#0 38156743#1 38156743#2"/>
    </vehicle>
    <vehicle id="15" depart="0.15">
        <route edges="195828013#4 326150486#0 326150486#1 36729028#2 36729029#0 36729029#1 36729029#2 36729029#3 193134986#0 193134986#1 193134984 193134985 193134988#0 193134988#1 193134988#2 29064946#0 29064946#1 317000782 317000781#0 317000781#1 21081120#0 21081120#1 21081120#2 21081120#3 21081120#4 332402667 316713564 36729011#0 36729011#1 36729012 316713565 62200559#0 62200559#1 128171761 36729010#0 36729010#1 36726220#0 36726220#1 29400781#0 29400781#1 29400781#2 324204703 324204704 324204705#0 324204705#1 122886924#0 122886924#1 324204708 324204707#0 324204707#1 324204707#2 324204710#0 324204710#1 324204706 324204709#0 324204709#1 36726222 51707742#0 51707742#1 51707742#2 51707742#3 30287785#3 80727849#0 80727849#1 80727849#2 80727848#0 80727848#1 80727848#2 80727848#3"/>
    </vehicle>
    <vehicle id="16" depart="0.16">
        <route edges="123911189#5 25614338#0 25614338#1 77615451#0 -77465095#1 -77465095#0 -77615029 -232042787 -77615028 -77647468#2 -77647468#1 -77647468#0 -77465096 -7920348#1 -7920348#0 127104868#0 127104868#1 36729037#0 36729037#1 36729037#2 77893334#0 77893334#1 77465097#0 77465097#1 77465097#2 77893337#0 77893337#1 77893337#2 54818682#0 54818682#1 54818681#0 -36729034 -42333036#1 -42333036#0 -42333035 -36729033#1 -36729033#0 36729032#0 36729032#1 37290604#0 37290604#1 37290603#0 37290603#1 37290603#2 37290603#3 37290603#4 42333034 81924128 81924139#0 81924139#1 81924139#2 81924135 81924132#0 81924132#1 81924134#0 81924134#1 81924145#0 81924145#1 81924145#2 81924145#3 81924145#4 128562363 122950930 37290602 8014829#9 8014829#10 30001902#0 30001902#1 30001902#2 30001902#3 30001902#4 30001902#5 30001902#6 -122949520#12 -122949520#11 -122949520#10 -122949520#9 -122949520#8 -122949520#7 -122949520#6 -122949520#5 -122949520#4 -122949520#3 -122949520#2 -122949520#1 -122949520#0 122949522#0 122949522#1 -122949522#1 -122949522#0 122949520#0 122949520#1 122949520#2"/>
    </vehicle>
    <vehicle id="17" depart="0.17">
        <route edges="-74307841 -75510906#1 -75510906#0 -74307862 -75510897#1 -75510897#0 -260944120 -75510901 -74307858 -143057427#1 -143057427#0 37498070 7921261 62384089 62384084 62384086#0 62384086#1 62384086#2 62384086#3 62384088 62384087 62384085#0 62384085#1 62383932#2 127104868#0 127104868#1 36729037#0 36729037#1 36729037#2 77893334#0 77893334#1 77465097#0 77465097#1 77465097#2 77893337#0 77893337#1 77893344#2 77893344#3 77893331 77893335 77893340 77893327#0 77893327#1 77893327#2 81924137#2 -97129661#3 -97129661#2 -97129661#1 -97129661#0 -97129664 -317000785 -30528321#1 -30528321#0 -76335649#1 -76335649#0 -76335031 -233999099 -98304770 -62212961#1 -62212961#0 -15245482#3 -15245482#2 -15245482#1 -15245482#0 30955822#0 30955822#1 30955822#2 42919366#0 42919366#1 42919367#0 42919367#1 42919365 76336872#0 76336872#1"/>
    </vehicle>
    <vehicle id="18" depart="0.18">
        <route edges="28656019#2 28656019#3 386781413 81924141#0 37290604#0 37290604#1 37290603#0 37290603#1 37290603#2 37290603#3 37290603#4 42333034 81924128 81924139#0 81924139#1 81924139#2 81924135 81924132#0 81924132#1 82410880#1 82410880#2 302021963#0 302021963#1 344789086#0 344789086#1 344789070#0 344789070#1 344789092#0 344789092#1 gneE1 36729009 344789098 344789076 344789062 344789082 317000783 317000784#0 317000784#1 29064946#0 29064946#1 317000782 317000781#0 317000781#1 21081120#0 21081120#1 21081120#2 21081120#3 21081120#4 332402667 316713564 36729011#0 36729011#1 36729012 316713565 62200559#0 62200559#1 128171761 36729010#0 36729010#1 36726220#0 36726220#1 36726220#2 36726220#3 80727850#0 80727850#1 80727853#0 80727853#1 -129300238#1 -129300238#0 -129300233#1 -129300233#0 -129300244#1 -129300244#0 -129300241#2"/>
    </vehicle>
    <vehicle id="19" depart="0.19">
        <route edges="62382878#1 62382877 219090534#0 219090534#1 62384619#0 62384619#1 62382879 62382876 62384627#0 62384627#1 -62384627#1 -62384627#0 -62382876 -62382879 -62384619#1 -62384619#0 -219090534#1"/>
    </vehicle>
    <vehicle id="20" depart="0.20">
        <route edges="22907032#0 22907032#1 37264258#0 37264258#1 37264258#2 37264258#3 37264258#4 655405465 122964115#0 122964115#1 122964115#2 30528320#0 30528320#1 30602647 194388451#0 194388451#1 194388451#2 127104874 34031654 62383934 259716340 62383931 62383930#0 62383930#1 62383930#2 62383930#3 62383932#0 62383932#1 62383932#2 127104868#0 127104868#1 36729037#0 36729037#1 36729037#2 77893334#0 77893334#1 77465097#0 77465097#1 77465097#2 77893337#0 77893337#1 77893337#2 54818682#0 54818682#1 54818681#0 -36729034 -42333036#1 -42333036#0 -42333035 -36729033#1 -36729033#0 36729032#0 36729032#1 37290604#0 37290604#1 37290603#0 37290603#1 37290603#2 37290603#3 37290603#4 42333034 81924128 81924139#0 81924139#1 81924139#2 81924135 81924132#0 81924132#1 81924134#0 81924134#1 81924145#0 81924145#1 81924145#2 81924145#3 81924145#4 128562363 122950930 37290602 -37290602 -122950930 -128562363 -81924145#4 -81924145#3 -81924145#2 -81924145#1 -81924145#0"/>
    </vehicle>
    <vehicle id="21" depart="0.21">
        <route edges="36726222 51707742#0 51707742#1 51707742#2 51707742#3 30287785#3 80727849#0 80727849#1 80727849#2 80727848#0 80727848#1 80727848#2 80727848#3 25361336 122886921#0 122886921#1 122886921#2 -80727853#1 -80727853#0 -80727850#1 -80727850#0 -36726220#3 -36726220#2 -36726220#1 -36726220#0 -36729010#1 -36729010#0 -128171761 -62200559#1 -62200559#0 -316713565 -36729012 -36729011#1 -36729011#0 -316713564 -332402667 -21081120#4 -21081120#3 -21081120#2 -21081120#1 -21081120#0 -317000781#1 -317000781#0 -317000782 -29064946#1 -29064946#0 28408160#0 28408160#1"/>
    </vehicle>
    <vehicle id="22" depart="0.22">
        <route edges="217189183 217189184 217189185#0 217189185#1 217189185#2 217189186#0 217189186#1 187794586 187794592 187794600#0 187794600#1 187794600#2 122964118#0 122964118#1 37142311 211958287#0 211958287#1 62212735 62212736#0 62212736#1 62212736#2 62212736#3 62212737 62212741 234001133#0 234001133#1 234001133#2 234001132 332402672#0 332402672#1 234001131 132422343 62212740 332402673#0 332402673#1 332402673#2 -36729011#0 -316713564 -332402667 -21081120#4 -21081120#3 -21081120#2 -21081120#1 -21081120#0 -317000781#1 -317000781#0 -317000782 -29064946#1 -29064946#0 -317000784#1 -317000784#0 -317000783 -344789082 -344789062 -344789076 -344789098 -36729009 -gneE1 -344789092#1 -344789092#0 -344789070#1 -344789070#0 -344789086#1 -344789086#0 -302021963#1 -302021963#0 -82410880#2 -82410880#1 -82410880#0 -123635329#1 -123635329#0 37287290 28842830#0 28842830#1"/>
    </vehicle>
    <vehicle id="23" depart="0.23">
        <route edges="36729036#3 36729036#4 36729036#5 -36729036#5 -36729036#4 -36729036#3 -36729036#2 -36729036#1 -36729036#0 -86597190#1 -86597190#0 -123901490 -54821945#1 -54821945#0 -54818681#2 -54818681#1 -36729034 -42333036#1 -42333036#0 -42333035 -36729033#1 -36729033#0 36729032#0 36729032#1 37290604#0 37290604#1 37290603#0 37290603#1 37290603#2 37290603#3 37290603#4 42333034 81924128 81924139#0 81924139#1 81924139#2 81924135 81924132#0 81924132#1 82410880#1 82410880#2 302021963#0 302021963#1 344789086#0 344789086#1 344789070#0 344789070#1 344789092#0 344789092#1 -344789092#1 -344789092#0"/>
    </vehicle>
    <vehicle id="24" depart="0.24">
        <route edges="-193116151#3 -193116151#2 -193116151#1 -193116151#0 -193116150 -25361340 -51707744#2 -51707744#1 -51707744#0 25361336 122886921#0 122886921#1 122886921#2 -80727853#1 -80727853#0 -80727850#1 -80727850#0 -36726220#3 -36726220#2 29400781#0 29400781#1 29400781#2 324204703 324204704 324204705#0 324204705#1 28408345#0 28408345#1 324204711#0 324204711#1 310792148 62201410 62213052#0 62213052#1 62213050 36726223#0 62212736#2 62212736#3 62212737 62212741 234001133#0 234001133#1 234001133#2 234001132 332402672#0 332402672#1 234001131 132422343 62212740 332402673#0"/>
    </vehicle>
    <vehicle id="25" depart="0.25">
        <route edges="81522820#1 81522820#2 234002842#0 234002842#1 332402668#0 332402668#1 332399560#0 332399560#1 332399559 332399561#0 332399561#1 114554764#2 114554757 114555282 114555280 114555281#0 114555281#1 81527786 114555279 316508912 316508913 34031133#0 34031133#1 572656879#0 572656879#1 34031136 114555485#0 114555485#1 114555487 114555484 231158430#0 231158430#1 195828017#0 195828017#1 195828017#2 195828017#3 195828017#4 195828017#5 195828017#6 195828017#7 193134983 193134987 36729028#0 36729028#1 36729028#2 36729029#0 36729029#1 36729029#2 36729029#3 193134986#0 193134986#1 193134984 193134985 193134988#0 193134988#1 193134988#2 -317000784#1 -317000784#0 -317000783 -344789082 -344789062 -344789076 -344789098 -36729009 -gneE1 -344789092#1 -344789092#0 -344789070#1 -344789070#0 -344789086#1 -344789086#0 -302021963#1 -302021963#0 -82410880#2 -82410880#1 81924134#0 81924134#1 81924145#0 81924145#1 81924145#2 81924145#3 81924145#4 128562363 122950930 37290602 8014829#9 8014829#10"/>
    </vehicle>
    <vehicle id="26" depart="0.26">
        <route edges="9776916#0 9776916#1 9776916#2 -9776916#2 -9776916#1 -9776916#0 333061574#2 333061574#3 333061563 81527791#0 81527791#1 81527791#2 81527787#0 81527787#1 572656879#0 572656879#1 34031136 114555485#0 114555485#1 114555487 114555484 231158430#0 231158430#1 195828017#0 195828017#1 195828017#2 195828017#3 195828017#4 195828017#5 195828017#6 195828017#7 193134983 193134987 36729028#0 36729028#1 36729028#2 36729029#0 36729029#1 36729029#2 36729029#3 193134986#0 193134986#1 193134984 193134985 193134988#0 193134988#1 193134988#2 28408160#0 28408160#1 193139551 193139537 193139533 193139549 193139529 193139541 193139554#0 193139554#1 36729031 30528321#0 30528321#1"/>
    </vehicle>
    <vehicle id="27" depart="0.27">
        <route edges="332399560#1 332399559 332399561#0 332399561#1 114554764#2 114554757 114555282 114555280 114555281#0 114555281#1 81527786 114555279 316508912 316508913 34031133#0 34031133#1 572656879#0 572656879#1 34031136 114555485#0 114555485#1 114555487 114555484 231158430#0 231158430#1 195828017#0 195828017#1 195828017#2 195828017#3 195828017#4 195828017#5 195828017#6 195828017#7 193134983 193134987 36729028#0 36729028#1 36729028#2 36729029#0 36729029#1 36729029#2 36729029#3 193134986#0 193134986#1 193134984 193134985 193134988#0 193134988#1 193134988#2 28408160#0 28408160#1 193139551 193139537 193139533 193139549 193139529 193139541 193139554#0 193139554#1 36729031 -76335649#1"/>
    </vehicle>
    <vehicle id="28" depart="0.28">
        <route edges="36730362#0 36730362#1 127809159#2 127809159#3 36730335#0 36730336#1 36730337 201293692 201293693#0 201293693#1 232008578 74307851 36730332#0 36730332#1 36730332#2 36730332#3 36730332#4 36730332#5 36730333 75384651#0 75384651#1 74307865#0 74307865#1 74307865#2 143057426#0 143057426#1 315605356 315605355 4243036#0 194850767#2 194850767#3 75507914 75507913 75507915 74307849 74307860#0 74307860#1 76355638 76355639 76355640 76355641 166564261 37142649 4243035#0 4243035#1 4243035#2 37142650 127104874 34031654"/>
    </vehicle>
    <vehicle id="29" depart="0.29">
        <route edges="230989021 232043439 744383200 230989020#0 230989020#1 77615452 18385008#0 18385008#1 18385008#2 18385008#3 36729030#0 36729030#1 -76335649#1 -76335649#0 -76335031 -233999099 -98304770 -62212961#1 -62212961#0 -15245482#3 -15245482#2 -15245482#1 -15245482#0 -233999572#2 -233999572#1 -233999572#0 -76333547 -76333545 -234000028 -62212960 -36726224 -36726223#1 62212736#2 62212736#3 62212737 62212741 234001133#0 234001133#1 234001133#2 234001132 332402672#0 332402672#1 234001131 132422343 62212740 332402673#0 332402673#1 332402673#2 62212739#0 62212739#1 332402669#0 332402669#1 332402669#2 332402669#3 234002366 332402670#0 332402670#1 81522820#0 36729015#1 36729015#2 234072361 234072360#0 234072360#1 234072360#2 234072362 234100809#0 234100809#1 234100809#2 234100501#0 234100501#1 -37293912#0 -37293913#4 -37293913#3 -37293913#2 -37293913#1 -37293913#0 -114554802#8 -114554802#7 -114554802#6 -114554802#5 -114554802#4 -114554802#3 -114554802#2 -114554802#1 -114554802#0 114554802#0 114554802#1 114554802#2 114554802#3 114554802#4 114554802#5 114554802#6 114554802#7 114554802#8 37293913#0"/>
    </vehicle>
    <vehicle id="30" depart="0.30">
        <route edges="30955822#0 30955822#1 30955822#2 42919366#0 42919366#1 42919367#0 42919367#1 42919365 -42919365 -42919367#1 -42919367#0 -42919366#1 -42919366#0 -30955822#2 -30955822#1 -30955822#0 -233999572#2 -233999572#1 -233999572#0 -76333547 -76333545 -234000028 -62212960 -36726224 -36726223#1 62212736#2 62212736#3 62212737 62212741 234001133#0 234001133#1 234001133#2 234001132 332402672#0 332402672#1 234001131 132422343 62212740 332402673#0 332402673#1 332402673#2 36729011#1 36729012 316713565 62200559#0 62200559#1 128171761 36729010#0 -29186154#5 -29186154#4 -29186154#3 -29186154#2 -29186154#1 -29186154#0"/>
    </vehicle>
    <vehicle id="31" depart="0.31">
        <route edges="-80715863#3 -80715863#2 123899996#0 123899996#1 123899996#2 37265517#0 37265517#1 123899997#0 123899997#1 28656019#0 28656019#1 28656019#2 28656019#3 386781413 81924141#0 81924141#1 81924137#0 81924137#1 81924137#2 22672072#0 22672072#1 22672072#2 82410887 28586048#0 28586048#1 245184948#0 245184948#1 25614338#0 25614338#1 77615451#0 77615451#1"/>
    </vehicle>
    <vehicle id="32" depart="0.32">
        <route edges="-80715863#0 -80715855#5 -80715855#4 -80715855#3 -80715855#2 -80715855#1 -80715855#0 -80715860 -80715865#2 80715865#2 80715860 80715855#0 80715855#1 80715855#2 80715855#3 80715855#4 80715855#5 80715863#0 80715863#1 80715863#2 80715863#3 80715861#0 80715861#1 80715861#2 80715861#3 80715861#4 70957866 70957864 30097052#0 30097052#1 85247849 60738729#0 60738729#1 60738729#2 60738729#3 60738728 81241338 81241337 62382995#0 62382995#1 7921561#0 7921561#1 62382881 62382880#0 62382880#1 62382878#0 62382878#1 62382877 219090534#0 219090534#1 62384619#0 62384619#1 62382879 62382876 62384627#0 62384627#1 -28321714#0 -62384624 -62384622 -81356841#1 -81356841#0"/>
    </vehicle>
    <vehicle id="33" depart="0.33">
        <route edges="-7921561#1 -7921561#0 62382995#2 143057430 260944338 197339886 197339887#0 197339887#1 37498070 7921261 62384089 62384084 62384086#0 62384086#1 62384086#2 62384086#3 62384088 62384087 62384085#0 62384085#1 62383932#2 7920348#0 7920348#1 77465096 77647468#0 77647468#1 77647468#2 77615028 232042787 77615029 77465095#0 77465095#1 77615451#1 77615449 245187834 26692016 77615448#0 77615448#1"/>
    </vehicle>
    <vehicle id="34" depart="0.34">
        <route edges="123635330#0 123635330#1 37260960#0 37260960#1 -342534666#1 -342534666#0 -114557572 -23180033#1 -23180033#0 -28842830#1 -28842830#0 -37287290 123635329#0 123635329#1 82410880#0 82410880#1 82410880#2 302021963#0 302021963#1 344789086#0 344789086#1 344789070#0 344789070#1 344789092#0 344789092#1 gneE1 36729009 344789098 344789076 344789062 344789082 317000783 317000784#0 317000784#1 29064946#0 29064946#1 317000782 317000781#0 317000781#1 21081120#0 21081120#1 21081120#2 21081120#3 21081120#4 332402667 316713564 36729011#0 36729011#1 36729012 316713565 62200559#0 62200559#1 128171761 36729010#0 36729010#1 36726220#0 36726220#1 36726220#2 36726220#3 80727850#0 80727850#1 80727853#0 80727853#1 -122886921#2 -122886921#1 -122886921#0 122886923#0 122886923#1 122886923#2 122886923#3 316509065 316509063 29049210#0"/>
    </vehicle>
    <vehicle id="35" depart="0.35">
        <route edges="-4243036#6 -4243036#5 -4243036#4 -4243036#3 -4243036#2 -4243036#1 194850767#2 194850767#3 75507914 75507913 75507915 74307849 74307860#0 74307860#1 76355638 76355639 76355640 76355641 166564261 166564262 99988875 99988876 202485897 155368069 155367885 155367884 99988877#0 99988877#1 28903078 132555329#0 132555329#1 132555329#2 37137192 30260452 37142312#0 37142312#1 37142312#2 122964118#0 122964118#1 37142311 211958287#0 211958287#1 62212735 62212736#0 62212736#1 62212736#2 62212736#3 62212737 62212741 234001133#0 234001133#1 234001133#2 234001132 332402672#0 332402672#1 234001131 132422343 62212740 332402673#0 332402673#1 332402673#2 -36729011#0 -316713564 -332402667 -21081120#4 -21081120#3 -21081120#2 -42919373#0 -42919372 -42919371 -42919374#2 -42919374#1 -42919374#0 -126902357#1 -126902357#0 -42919375 -42919376#1 -42919376#0 -126902358 -30903129#2 -30903129#1 -30903129#0 30568275#0 30568275#1 30568275#2 316590746#0 316590746#1"/>
    </vehicle>
    <vehicle id="36" depart="0.36">
        <route edges="75510897#0 75510897#1 74307862 75510906#0 75510906#1 74307841 74307847 337207932#0 337207932#1 81796218#2 81796218#3 74307845 193146008#0 193146008#1 75385584 85247916 74307852#0 74307852#1 -4243036#6 -4243036#5 -4243036#4 -4243036#3 -4243036#2 -4243036#1 -4243036#0 -315605355 -315605356 -143057426#1 -143057426#0 -74307865#2 -74307865#1 -74307865#0 -75384651#1 -75384651#0 -36730333 -36730332#5 -36730332#4 -36730332#3 -36730332#2 -36730332#1 -36730332#0 -74307851 -232008578 -201293693#1 -201293693#0 -201293692 -36730337 -36730336#1 -36730335#0 -127809159#3 -127809159#2 -36730362#1 -36730362#0"/>
    </vehicle>
    <vehicle id="37" depart="0.37">
        <route edges="37293913#3 37293913#4 37293912#0 234100501#2 81523597 234101647#0 234101647#1 315443480 81523598#0 81523598#1 81523598#2 81523598#3 81523598#4 233567130 315443481#0 315443481#1 315443482#0 315443482#1 122886922#0 122886922#1 122886922#2 129300241#0 129300241#1 129300241#2 129300244#0 129300244#1 129300233#0 129300233#1 129300238#0 129300238#1 -122886921#2 -122886921#1 -122886921#0 122886923#0 122886923#1 122886923#2 122886923#3 316509065 316509063 29049210#0 29049210#1 51707741#0 51707741#1 51707741#2 51707741#3 51707741#4 51707741#5 34001456#0 34001456#1 28584322 30259990 34001453#0 34001453#1 34001453#2"/>
    </vehicle>
    <vehicle id="39" depart="0.39">
        <route edges="122964115#1 122964115#2 30528320#0 30528320#1 30602647 194388451#0 194388451#1 194388451#2 264777229 62383933 149124872 193141641 81796218#0 81796218#1 -337207932#1 -337207932#0 -74307847 -74307841"/>
    </vehicle>
    <vehicle id="40" depart="0.40">