<?xml version="1.0" ?>
<routes xmlns:xsi="http://www.w3.org/2001/XMLSchema-instance" xsi:noNamespaceSchemaLocation="http://sumo.dlr.de/xsd/routes_file.xsd">
 <trip id="0" depart="0.6" from="-80715865#1" to="337207932#1"/>
 <trip id="1" depart="16.5" from="81924132#0" to="344789082"/>
 <trip id="2" depart="17.4" from="-126902358" to="-15245482#2"/>
 <trip id="3" depart="20.7" from="-9776916#2" to="234100501#1"/>
 <trip id="4" depart="22.7" from="-257702155#3" to="80715863#0"/>
 <trip id="5" depart="24.1" from="-80715855#3" to="-36726220#2"/>
 <trip id="6" depart="26.0" from="114554802#1" to="29400781#1"/>
 <trip id="7" depart="26.5" from="143057427#1" to="-76333547"/>
 <trip id="8" depart="27.0" from="-21081120#4" to="332402670#0"/>
 <trip id="9" depart="29.8" from="-81924145#1" to="257702155#0"/>
 <trip id="10" depart="30.3" from="62212741" to="-15240373#3"/>
 <trip id="11" depart="31.9" from="4247500#0" to="34001456#1"/>
 <trip id="12" depart="35.9" from="62383932#2" to="-14472965#0"/>
 <trip id="13" depart="37.8" from="-62384625" to="-4247500#1"/>
 <trip id="14" depart="38.1" from="28775991#1" to="81356841#1"/>
 <trip id="15" depart="41.0" from="-80715855#1" to="132555329#1"/>
 <trip id="16" depart="55.5" from="9776916#2" to="-317000781#1"/>
 <trip id="17" depart="57.6" from="-60754205#1" to="-4243036#2"/>
 <trip id="18" depart="59.2" from="80715865#2" to="-257702155#3"/>
 <trip id="19" depart="60.0" from="-4247500#1" to="-134994771"/>
 <trip id="20" depart="62.1" from="-21081120#1" to="-4247500#2"/>
 <trip id="21" depart="64.9" from="-74307858" to="-4243035#0"/>
 <trip id="22" depart="75.4" from="30568275#2" to="572656879#0"/>
 <trip id="23" depart="80.3" from="76354127#0" to="-134994771"/>
 <trip id="24" depart="80.8" from="-62384627#1" to="232043439"/>
 <trip id="25" depart="81.7" from="80727853#1" to="37293913#4"/>
 <trip id="26" depart="86.7" from="122946787#2" to="122962417#0"/>
 <trip id="27" depart="87.9" from="195828017#5" to="186631612#3"/>
 <trip id="28" depart="88.0" from="28842837#3" to="4243036#0"/>
 <trip id="29" depart="89.4" from="14472965#1" to="-42919373#1"/>
 <trip id="30" depart="90.4" from="-9776916#2" to="-62384089"/>
 <trip id="31" depart="90.8" from="114555485#0" to="36729013#3"/>
 <trip id="32" depart="94.5" from="42919367#0" to="62384086#2"/>
 <trip id="33" depart="95.0" from="29689101" to="143057427#0"/>
 <trip id="34" depart="95.3" from="-80715855#0" to="62382878#0"/>
 <trip id="35" depart="96.7" from="-15240373#0" to="114554764#2"/>
 <trip id="36" depart="98.2" from="-82410880#0" to="62382995#2"/>
 <trip id="37" depart="99.2" from="28408345#1" to="37293913#2"/>
 <trip id="38" depart="101.1" from="38156743#0" to="-4243036#3"/>
 <trip id="39" depart="105.0" from="30287785#2" to="-4247500#0"/>
 <trip id="40" depart="105.2" from="38156743#4" to="-186631612#3"/>
 <trip id="41" depart="115.7" from="302021963#0" to="315443481#0"/>
 <trip id="42" depart="116.2" from="-60754205#1" to="-4243036#0"/>
 <trip id="43" depart="116.7" from="122949520#6" to="-126902357#1"/>
 <trip id="44" depart="121.7" from="217189185#1" to="4247500#2"/>
 <trip id="45" depart="122.0" from="81527019#1" to="316590745"/>
 <trip id="46" depart="122.4" from="-4247500#0" to="62383930#3"/>
 <trip id="47" depart="122.8" from="75384668" to="30259989#1"/>
 <trip id="48" depart="127.6" from="114555765#1" to="76355638"/>
 <trip id="49" depart="129.3" from="-4247500#2" to="-77647468#2"/>
 <trip id="50" depart="129.5" from="80727848#0" to="85247916"/>
 <trip id="51" depart="130.9" from="28583925#0" to="14472965#0"/>
 <trip id="52" depart="139.1" from="81152593" to="-62382995#2"/>
 <trip id="53" depart="140.0" from="-77465097#1" to="81523598#4"/>
 <trip id="54" depart="144.6" from="80715855#1" to="28775991#1"/>
 <trip id="55" depart="145.6" from="-80715863#1" to="-77647468#0"/>
 <trip id="56" depart="148.4" from="-29186154#3" to="-77465095#1"/>
 <trip id="57" depart="151.3" from="-317000781#1" to="129300244#1"/>
 <trip id="58" depart="153.6" from="36729029#3" to="217189186#0"/>
 <trip id="59" depart="154.6" from="217189186#0" to="-317000783"/>
 <trip id="60" depart="156.1" from="45150439#2" to="-81527785#1"/>
 <trip id="61" depart="156.2" from="15240373#4" to="316508912"/>
 <trip id="62" depart="157.5" from="-80727847#0" to="315443481#1"/>
 <trip id="63" depart="157.7" from="80715861#1" to="62382880#0"/>
 <trip id="64" depart="158.3" from="126902357#1" to="34031136"/>
 <trip id="65" depart="163.2" from="36729039#2" to="74307860#1"/>
 <trip id="66" depart="163.5" from="62382877" to="81527191#0"/>
 <trip id="67" depart="169.3" from="81527791#0" to="15240373#0"/>
 <trip id="68" depart="171.1" from="81796303" to="-143057430"/>
 <trip id="69" depart="173.3" from="342717764#0" to="342534666#2"/>
 <trip id="70" depart="177.2" from="324204709#1" to="81796302#0"/>
 <trip id="71" depart="179.6" from="-122886922#1" to="316508913"/>
 <trip id="72" depart="186.9" from="114555280" to="29186154#2"/>
 <trip id="74" depart="187.4" from="114555281#0" to="655405463"/>
 <trip id="75" depart="191.3" from="80715855#1" to="-4247500#0"/>
 <trip id="76" depart="193.1" from="37265517#1" to="29689101"/>
 <trip id="77" depart="195.4" from="333061569" to="-317000781#1"/>
 <trip id="78" depart="196.6" from="-129300241#2" to="316590746#1"/>
 <trip id="79" depart="197.8" from="195828013#3" to="37293913#4"/>
 <trip id="80" depart="198.0" from="-129300233#0" to="217189186#1"/>
 <trip id="81" depart="198.3" from="-42919373#2" to="-81527791#0"/>
 <trip id="82" depart="202.1" from="62384619#1" to="4247500#1"/>
 <trip id="83" depart="203.9" from="62382878#0" to="15245482#3"/>
 <trip id="84" depart="204.8" from="316590744" to="234072360#2"/>
 <trip id="85" depart="205.2" from="114555765#0" to="-74307847"/>
 <trip id="86" depart="207.2" from="42333035" to="21081120#0"/>
 <trip id="87" depart="208.4" from="-37265518#2" to="-28321714#1"/>
 <trip id="88" depart="208.5" from="-81241338" to="-15240373#0"/>
 <trip id="89" depart="211.0" from="81924145#1" to="245187834"/>
 <trip id="90" depart="212.7" from="81924134#1" to="114554802#7"/>
 <trip id="91" depart="213.1" from="-201293693#0" to="62384623"/>
 <trip id="92" depart="217.4" from="315443481#0" to="193134983"/>
 <trip id="93" depart="217.4" from="29400781#1" to="-62383931"/>
 <trip id="94" depart="219.7" from="-15245482#2" to="193134988#0"/>
 <trip id="95" depart="221.1" from="-129300244#0" to="81527785#0"/>
 <trip id="96" depart="227.0" from="-80715865#0" to="-244282080#1"/>
 <trip id="97" depart="229.3" from="114555767#4" to="114555485#0"/>
 <trip id="98" depart="232.7" from="-122962417#1" to="62212741"/>
 <trip id="99" depart="234.1" from="332402668#1" to="81527023#1"/>
 <trip id="100" depart="238.9" from="332402673#1" to="34001456#0"/>
 <trip id="101" depart="241.0" from="30287785#0" to="-14472965#0"/>
 <trip id="102" depart="244.8" from="4247500#0" to="30260452"/>
 <trip id="103" depart="246.4" from="30001818#0" to="-126902357#1"/>
 <trip id="104" depart="247.1" from="230521085#0" to="62384619#1"/>
 <trip id="105" depart="248.9" from="75510897#1" to="36729029#1"/>
 <trip id="106" depart="249.2" from="30001902#5" to="38156743#2"/>
 <trip id="107" depart="257.8" from="-219090534#1" to="4247500#2"/>
 <trip id="108" depart="257.8" from="-114554802#7" to="114555282"/>
 <trip id="109" depart="260.7" from="332402670#1" to="76354128"/>
 <trip id="110" depart="260.8" from="-29186154#6" to="-114554802#8"/>
 <trip id="111" depart="266.0" from="-81356832#2" to="76354127#1"/>
 <trip id="112" depart="268.0" from="-62383932#0" to="-4243036#0"/>
 <trip id="113" depart="271.2" from="-28656019#1" to="-62383931"/>
 <trip id="114" depart="271.5" from="30001902#5" to="21081120#4"/>
 <trip id="115" depart="271.6" from="-193116151#3" to="37293913#1"/>
 <trip id="116" depart="274.0" from="81527019#0" to="-29186154#0"/>
 <trip id="117" depart="278.8" from="193139537" to="62384085#0"/>
 <trip id="118" depart="280.5" from="333061573#0" to="24449389#0"/>
 <trip id="119" depart="282.8" from="129300238#1" to="122886924#1"/>
 <trip id="120" depart="285.1" from="-62382995#2" to="-114554802#5"/>
 <trip id="121" depart="285.4" from="-4247500#0" to="29186154#1"/>
 <trip id="122" depart="287.6" from="-36730332#1" to="-143057427#0"/>
 <trip id="123" depart="292.8" from="29064946#0" to="332399560#1"/>
 <trip id="124" depart="294.1" from="81796218#1" to="37137192"/>
 <trip id="125" depart="299.6" from="80715855#5" to="-62384088"/>
 <trip id="126" depart="299.6" from="-74307865#1" to="25522290#1"/>
 <trip id="127" depart="300.2" from="-81924145#2" to="-126902358"/>
 <trip id="128" depart="303.5" from="-74307865#2" to="74307845"/>
 <trip id="129" depart="307.4" from="-62384088" to="315605355"/>
 <trip id="130" depart="315.4" from="82410880#0" to="76354127#1"/>
 <trip id="131" depart="316.1" from="-201293692" to="62384619#1"/>
 <trip id="132" depart="317.3" from="81527791#1" to="15240373#1"/>
 <trip id="133" depart="317.4" from="114554766" to="81523598#2"/>
 <trip id="134" depart="317.4" from="36729013#3" to="-62384627#0"/>
 <trip id="135" depart="318.2" from="30903129#1" to="143057430"/>
 <trip id="136" depart="319.4" from="114554786#2" to="82410880#1"/>
 <trip id="137" depart="323.3" from="-81924137#1" to="81356832#2"/>
 <trip id="138" depart="323.8" from="81527023#1" to="-81527787#1"/>
 <trip id="139" depart="324.7" from="217189185#2" to="-14472965#1"/>
 <trip id="140" depart="327.4" from="81924137#2" to="29400781#2"/>
 <trip id="141" depart="331.8" from="122964115#0" to="24449389#2"/>
 <trip id="142" depart="332.5" from="128562363" to="29400781#1"/>
 <trip id="143" depart="333.8" from="60753082#0" to="75510901"/>
 <trip id="144" depart="336.5" from="-129300233#0" to="76354127#0"/>
 <trip id="145" depart="336.9" from="-260944120" to="14472965#1"/>
 <trip id="146" depart="341.3" from="-317000781#1" to="80727850#1"/>
 <trip id="147" depart="341.4" from="37290602" to="42919376#0"/>
 <trip id="148" depart="342.6" from="114554802#6" to="316590744"/>
 <trip id="149" depart="346.2" from="127809159#2" to="264777229"/>
 <trip id="150" depart="348.5" from="-15240373#3" to="42919373#0"/>
 <trip id="151" depart="349.0" from="-123635329#0" to="332402670#1"/>
 <trip id="152" depart="351.3" from="127809159#1" to="62382877"/>
 <trip id="153" depart="351.8" from="260944120" to="-37293913#1"/>
 <trip id="154" depart="352.0" from="-75510906#1" to="34001453#2"/>
 <trip id="155" depart="352.5" from="-219090534#1" to="-4247500#2"/>
 <trip id="156" depart="355.7" from="8014829#1" to="195828013#4"/>
 <trip id="157" depart="357.5" from="-42919373#2" to="-30528321#1"/>
 <trip id="158" depart="358.4" from="333061574#2" to="129300244#0"/>
 <trip id="159" depart="359.2" from="-122962417#0" to="-62382878#1"/>
 <trip id="160" depart="360.5" from="122950927#0" to="324204710#1"/>
 <trip id="161" depart="364.8" from="122886923#1" to="51707741#2"/>
 <trip id="162" depart="366.9" from="-14472965#0" to="-42919366#0"/>
 <trip id="163" depart="369.9" from="-42919373#0" to="122949520#12"/>
 <trip id="164" depart="370.2" from="62384622" to="-14472965#1"/>
 <trip id="165" depart="371.6" from="60754209#0" to="14472965#0"/>
 <trip id="166" depart="374.7" from="81356832#2" to="30260452"/>
 <trip id="167" depart="376.0" from="51707742#1" to="-36729017"/>
 <trip id="168" depart="376.1" from="114555279" to="193134985"/>
 <trip id="169" depart="376.9" from="28842837#0" to="186631612#1"/>
 <trip id="170" depart="377.7" from="36729040" to="-4243036#2"/>
 <trip id="171" depart="378.8" from="337207932#1" to="4247500#1"/>
 <trip id="172" depart="379.4" from="-80715855#4" to="62212961#1"/>
 <trip id="173" depart="382.7" from="232008578" to="62382995#2"/>
 <trip id="174" depart="385.5" from="317000782" to="-186631612#0"/>
 <trip id="175" depart="386.8" from="332402670#0" to="42919373#1"/>
 <trip id="176" depart="387.3" from="-62384085#1" to="-134994771"/>
 <trip id="177" depart="389.5" from="114555280" to="-37293913#2"/>
 <trip id="178" depart="393.7" from="62383930#0" to="-4247500#1"/>
 <trip id="179" depart="393.7" from="82410875#0" to="-42919374#1"/>
 <trip id="180" depart="395.7" from="122886923#0" to="37293913#2"/>
 <trip id="181" depart="397.8" from="80727849#0" to="37293913#3"/>
 <trip id="182" depart="402.0" from="114555765#0" to="-21081120#1"/>
 <trip id="183" depart="403.1" from="193139551" to="-186631612#2"/>
 <trip id="184" depart="404.1" from="333061574#0" to="29064946#0"/>
 <trip id="185" depart="405.3" from="28842837#5" to="30955822#1"/>
 <trip id="187" depart="407.0" from="234072360#0" to="-126902357#0"/>
 <trip id="188" depart="410.3" from="-122886922#1" to="127104868#0"/>
 <trip id="189" depart="411.6" from="36729029#3" to="76355640"/>
 <trip id="190" depart="411.9" from="333061572#1" to="-21081120#0"/>
 <trip id="191" depart="412.1" from="-80715865#0" to="230521085#1"/>
 <trip id="192" depart="412.8" from="333061569" to="114555280"/>
 <trip id="193" depart="414.0" from="37265518#4" to="-29186154#1"/>
 <trip id="194" depart="417.1" from="62384084" to="-62383930#1"/>
 <trip id="195" depart="420.5" from="122948858#1" to="186631612#2"/>
 <trip id="196" depart="422.6" from="344789082" to="37264258#4"/>
 <trip id="197" depart="423.1" from="122886921#2" to="15240373#1"/>
 <trip id="198" depart="423.3" from="-60754212" to="-81356836#1"/>
 <trip id="199" depart="427.2" from="36729015#2" to="38156743#5"/>
 <trip id="200" depart="427.4" from="76355641" to="158253280#0"/>
 <trip id="201" depart="427.6" from="333061565" to="122886922#0"/>
 <trip id="202" depart="429.7" from="-23180033#1" to="30529424"/>
 <trip id="203" depart="431.1" from="45150440#0" to="114554802#7"/>
 <trip id="204" depart="434.6" from="-82410880#0" to="30528320#0"/>
 <trip id="205" depart="434.9" from="-4247500#1" to="62384084"/>
 <trip id="206" depart="435.2" from="54818681#0" to="37265518#0"/>
 <trip id="207" depart="436.9" from="-127809157" to="-77465095#1"/>
 <trip id="208" depart="437.7" from="36730335#2" to="29186154#1"/>
 <trip id="209" depart="449.0" from="333061565" to="-29186154#1"/>
 <trip id="210" depart="452.2" from="-97129661#0" to="4243036#1"/>
 <trip id="211" depart="452.5" from="195828017#1" to="37287290"/>
 <trip id="212" depart="452.6" from="80715855#2" to="75510897#0"/>
 <trip id="213" depart="458.1" from="29186154#1" to="324204710#0"/>
 <trip id="214" depart="461.2" from="81796302#2" to="-36729013#0"/>
 <trip id="215" depart="465.6" from="8014829#5" to="-333061574#3"/>
 <trip id="216" depart="466.6" from="143057430" to="4247500#1"/>
 <trip id="217" depart="466.7" from="195828017#3" to="234100501#1"/>
 <trip id="218" depart="467.0" from="-81527787#0" to="-122886922#1"/>
 <trip id="219" depart="468.4" from="-80715865#0" to="-4247500#1"/>
 <trip id="220" depart="468.7" from="196602997#0" to="81356841#0"/>
 <trip id="221" depart="469.4" from="21081120#4" to="-62382995#2"/>
 <trip id="222" depart="470.3" from="316590744" to="-81356832#0"/>
 <trip id="223" depart="470.9" from="15240373#1" to="-333061571"/>
 <trip id="224" depart="471.2" from="-337207932#0" to="-80715861#3"/>
 <trip id="225" depart="473.4" from="76354126" to="29064946#0"/>
 <trip id="226" depart="475.6" from="344789070#0" to="-14472965#1"/>
 <trip id="227" depart="475.8" from="42919365" to="158253280#0"/>
 <trip id="228" depart="477.7" from="82410875#1" to="-333061568"/>
 <trip id="229" depart="479.4" from="36729013#2" to="4247500#2"/>
 <trip id="230" depart="484.8" from="-122949520#10" to="23180033#0"/>
 <trip id="231" depart="493.7" from="234001133#1" to="234072362"/>
 <trip id="232" depart="496.5" from="122886923#0" to="-129300241#1"/>
 <trip id="233" depart="496.7" from="80727853#0" to="36729015#2"/>
 <trip id="234" depart="499.2" from="-9776916#1" to="37287287"/>
 <trip id="235" depart="499.3" from="217189185#2" to="333061564"/>
 <trip id="236" depart="499.4" from="195828013#1" to="342534666#3"/>
 <trip id="237" depart="499.8" from="114555767#1" to="-75510906#1"/>
 <trip id="238" depart="506.9" from="-60754212" to="62382876"/>
 <trip id="239" depart="513.2" from="-80715865#2" to="-333061573#0"/>
 <trip id="240" depart="513.4" from="114555767#4" to="9776916#0"/>
 <trip id="241" depart="514.1" from="-333061563" to="-62382878#0"/>
 <trip id="242" depart="516.7" from="202485897" to="-143057427#0"/>
 <trip id="243" depart="519.5" from="231158430#1" to="81924145#2"/>
 <trip id="244" depart="520.1" from="-122962417#0" to="193139551"/>
 <trip id="245" depart="522.7" from="-62383931" to="14472965#0"/>
 <trip id="246" depart="523.2" from="-122949524#3" to="81796303"/>
 <trip id="247" depart="524.7" from="37293912#0" to="-42919374#2"/>
 <trip id="248" depart="525.2" from="316590746#0" to="-29186154#1"/>
 <trip id="249" depart="525.6" from="-122949522#1" to="114554764#2"/>
 <trip id="250" depart="525.7" from="122948858#1" to="25522290#1"/>
 <trip id="251" depart="526.3" from="14472965#1" to="28583925#0"/>
 <trip id="252" depart="532.3" from="-14472965#1" to="36729013#3"/>
 <trip id="253" depart="534.4" from="-60753082#0" to="193139551"/>
 <trip id="254" depart="536.3" from="99988877#0" to="344789082"/>
 <trip id="255" depart="545.0" from="81796384" to="129300241#2"/>
 <trip id="256" depart="547.8" from="-81527785#1" to="-114554802#8"/>
 <trip id="257" depart="549.0" from="62384627#3" to="77615982"/>
 <trip id="258" depart="549.1" from="74307865#2" to="-14472965#1"/>
 <trip id="259" depart="558.1" from="51707741#0" to="-122886922#2"/>
 <trip id="260" depart="562.8" from="36726221#3" to="-344789082"/>
 <trip id="261" depart="564.2" from="51707742#3" to="333061574#3"/>
 <trip id="262" depart="566.3" from="30001818#0" to="114555279"/>
 <trip id="263" depart="569.5" from="-80727850#0" to="30287785#0"/>
 <trip id="264" depart="571.1" from="-60754209#0" to="149124872"/>
 <trip id="265" depart="572.2" from="80715865#1" to="62384627#3"/>
 <trip id="266" depart="574.1" from="114555281#0" to="-37293913#2"/>
 <trip id="267" depart="578.4" from="316590744" to="-52656372#1"/>
 <trip id="268" depart="578.7" from="-122949520#6" to="-114554802#0"/>
 <trip id="269" depart="579.8" from="234072360#2" to="28584322"/>
 <trip id="270" depart="583.9" from="333061569" to="333061568"/>
 <trip id="271" depart="589.6" from="-62382878#0" to="30259989#1"/>
 <trip id="272" depart="601.7" from="62213052#1" to="99988877#1"/>
 <trip id="273" depart="603.3" from="36729028#2" to="-4247500#1"/>
 <trip id="274" depart="604.1" from="-4243036#1" to="36729028#2"/>
 <trip id="275" depart="604.1" from="-80715863#3" to="193146008#0"/>
 <trip id="276" depart="608.1" from="234001131" to="132555329#0"/>
 <trip id="277" depart="609.4" from="342717764#0" to="-4243036#5"/>
 <trip id="278" depart="609.9" from="77647468#2" to="-62384627#2"/>
 <trip id="279" depart="610.0" from="342534666#2" to="122950930"/>
 <trip id="280" depart="611.1" from="-81924145#4" to="-114554802#2"/>
 <trip id="281" depart="612.2" from="-333061571" to="15240373#0"/>
 <trip id="282" depart="614.4" from="257702155#2" to="324204707#1"/>
 <trip id="283" depart="614.8" from="-75384651#1" to="28584322"/>
 <trip id="284" depart="616.5" from="193139549" to="-42919373#2"/>
 <trip id="285" depart="617.6" from="62382996" to="-4247500#1"/>
 <trip id="286" depart="619.0" from="28321714#0" to="30528384#1"/>
 <trip id="287" depart="621.0" from="-333061572#1" to="-232042787"/>
 <trip id="288" depart="621.2" from="-81152592#0" to="337207932#1"/>
 <trip id="289" depart="621.5" from="74307841" to="-9776916#0"/>
 <trip id="290" depart="625.9" from="80715855#2" to="30602647"/>
 <trip id="291" depart="641.8" from="-86597190#1" to="-333061573#2"/>
 <trip id="292" depart="642.5" from="143057426#0" to="-62384619#0"/>
 <trip id="293" depart="642.8" from="81796302#1" to="-74307858"/>
 <trip id="294" depart="647.2" from="36726221#0" to="342598832"/>
 <trip id="295" depart="650.8" from="81523598#2" to="35148623#0"/>
 <trip id="296" depart="651.0" from="264777229" to="-342534666#0"/>
 <trip id="297" depart="652.2" from="123412755#1" to="-337207932#0"/>
 <trip id="298" depart="655.8" from="-333061573#1" to="-37293912#1"/>
 <trip id="299" depart="657.8" from="37264258#4" to="14472965#0"/>
 <trip id="300" depart="658.8" from="22672072#1" to="4243036#1"/>
 <trip id="301" depart="659.6" from="122946787#3" to="333061567#1"/>
 <trip id="302" depart="660.1" from="-4247500#1" to="51707741#3"/>
 <trip id="303" depart="660.6" from="-80715865#0" to="62382876"/>
 <trip id="304" depart="662.5" from="193134988#0" to="-98304770"/>
 <trip id="305" depart="663.9" from="114555484" to="37265518#1"/>
 <trip id="306" depart="667.6" from="-333061569" to="81523598#1"/>
 <trip id="307" depart="669.3" from="-80715860" to="85247916"/>
 <trip id="308" depart="670.1" from="-14472965#1" to="37293912#0"/>
 <trip id="309" depart="670.8" from="316590744" to="81527019#1"/>
 <trip id="310" depart="672.3" from="28583925#1" to="-36726223#0"/>
 <trip id="311" depart="674.4" from="129300238#0" to="-129300241#0"/>
 <trip id="312" depart="680.5" from="-62213052#1" to="-122962417#1"/>
 <trip id="313" depart="682.7" from="75384651#0" to="127809157"/>
 <trip id="314" depart="683.2" from="80727853#1" to="81523598#2"/>
 <trip id="315" depart="684.0" from="62212736#0" to="99988876"/>
 <trip id="316" depart="685.8" from="195828013#2" to="-42919373#0"/>
 <trip id="317" depart="690.4" from="37265518#1" to="36729015#0"/>
 <trip id="318" depart="690.4" from="122949524#2" to="197339887#0"/>
 <trip id="319" depart="691.8" from="234101647#0" to="62384625"/>
 <trip id="320" depart="693.3" from="234072360#2" to="25614338#1"/>
 <trip id="321" depart="697.2" from="122949520#0" to="333061574#1"/>
 <trip id="322" depart="698.8" from="-232008578" to="24449389#0"/>
 <trip id="323" depart="699.7" from="14472965#0" to="62212961#0"/>
 <trip id="324" depart="699.9" from="36726220#3" to="260944120"/>
 <trip id="325" depart="701.7" from="-4247500#2" to="-134994771"/>
 <trip id="326" depart="709.2" from="4243036#4" to="123911189#3"/>
 <trip id="327" depart="709.3" from="45150440#0" to="14472965#0"/>
 <trip id="328" depart="717.3" from="-129300238#0" to="37293913#0"/>
 <trip id="329" depart="717.7" from="80715855#0" to="-114554802#7"/>
 <trip id="330" depart="719.6" from="332402669#0" to="28583925#1"/>
 <trip id="331" depart="722.0" from="-260944120" to="342598834"/>
 <trip id="332" depart="725.4" from="14472965#1" to="217189185#1"/>
 <trip id="333" depart="737.1" from="-122949520#2" to="-333061563"/>
 <trip id="334" depart="737.4" from="234072362" to="-572656872#0"/>
 <trip id="335" depart="737.5" from="76333547" to="60753079#1"/>
 <trip id="336" depart="740.2" from="42919375" to="81924132#0"/>
 <trip id="337" depart="742.9" from="62384619#1" to="81527019#1"/>
 <trip id="338" depart="745.8" from="-201293693#1" to="-7921561#1"/>
 <trip id="339" depart="750.4" from="-193116151#0" to="244282080#1"/>
 <trip id="340" depart="751.2" from="-36730332#0" to="76354127#1"/>
 <trip id="341" depart="751.9" from="60754212" to="4243036#4"/>
 <trip id="342" depart="756.5" from="-76333547" to="193146008#0"/>
 <trip id="343" depart="760.0" from="99988877#0" to="195828017#5"/>
 <trip id="344" depart="761.6" from="-317000781#0" to="234100809#2"/>
 <trip id="345" depart="761.6" from="37293913#4" to="28408160#1"/>
 <trip id="346" depart="763.0" from="15245482#0" to="127809157"/>
 <trip id="347" depart="766.2" from="51707742#2" to="158253280#0"/>
 <trip id="348" depart="766.9" from="80715865#0" to="81796302#0"/>
 <trip id="349" depart="773.6" from="342534666#0" to="34001455#2"/>
 <trip id="350" depart="778.0" from="4243035#2" to="-4243036#3"/>
 <trip id="351" depart="780.9" from="-233999572#2" to="-260944338"/>
 <trip id="352" depart="782.1" from="-42919374#1" to="-122949524#3"/>
 <trip id="353" depart="783.8" from="122962417#0" to="-333061574#1"/>
 <trip id="354" depart="784.9" from="74307860#1" to="114554802#6"/>
 <trip id="355" depart="785.9" from="-36730332#5" to="337207932#1"/>
 <trip id="356" depart="786.8" from="122949524#0" to="-9776916#1"/>
 <trip id="357" depart="789.3" from="234072360#1" to="187794587"/>
 <trip id="358" depart="789.6" from="80715855#0" to="4247500#0"/>
 <trip id="359" depart="789.8" from="-42919373#0" to="-81527787#1"/>
 <trip id="360" depart="790.2" from="-4243036#4" to="234100501#1"/>
 <trip id="361" depart="792.1" from="-36729039#1" to="74307841"/>
 <trip id="362" depart="792.7" from="36730362#1" to="81796301"/>
 <trip id="363" depart="792.8" from="28408345#1" to="81523597"/>
 <trip id="364" depart="793.7" from="4247500#0" to="75507913"/>
 <trip id="365" depart="797.3" from="34031136" to="234100809#1"/>
 <trip id="366" depart="797.4" from="37264258#0" to="195828013#3"/>
 <trip id="367" depart="798.5" from="77893344#1" to="37293913#2"/>
 <trip id="368" depart="799.6" from="122886922#1" to="81527191#1"/>
 <trip id="369" depart="801.8" from="-60753077" to="342534666#0"/>
 <trip id="370" depart="807.7" from="34001455#1" to="4247500#0"/>
 <trip id="371" depart="808.9" from="-36730335#0" to="4247500#0"/>
 <trip id="372" depart="809.3" from="234101647#0" to="9776916#1"/>
 <trip id="373" depart="813.1" from="-77647468#0" to="38156743#5"/>
 <trip id="374" depart="817.6" from="122946787#0" to="36729029#3"/>
 <trip id="375" depart="821.2" from="-62212961#0" to="75510906#0"/>
 <trip id="376" depart="825.2" from="-344789062" to="76354126"/>
 <trip id="377" depart="825.8" from="60738729#1" to="75507913"/>
 <trip id="378" depart="827.6" from="114554802#5" to="217189185#1"/>
 <trip id="379" depart="829.9" from="195828017#1" to="-81241337"/>
 <trip id="380" depart="830.9" from="81924145#2" to="-197339886"/>
 <trip id="381" depart="831.6" from="-36729010#0" to="81523598#1"/>
 <trip id="382" depart="832.7" from="80715865#1" to="81924145#2"/>
 <trip id="383" depart="832.9" from="82410880#0" to="14472965#1"/>
 <trip id="384" depart="834.0" from="-77465096" to="62382878#0"/>
 <trip id="385" depart="834.1" from="-342534666#1" to="62383934"/>
 <trip id="386" depart="834.4" from="80727853#1" to="30259989#1"/>
 <trip id="387" depart="836.4" from="-36730362#0" to="28321714#0"/>
 <trip id="388" depart="843.6" from="-14472965#1" to="62382878#0"/>
 <trip id="389" depart="844.6" from="342717764#1" to="195828013#4"/>
 <trip id="390" depart="846.8" from="-62384625" to="-4247500#0"/>
 <trip id="391" depart="847.1" from="122949520#2" to="-62384084"/>
 <trip id="392" depart="848.0" from="-81527787#1" to="-122886922#1"/>
 <trip id="393" depart="849.3" from="30903129#0" to="-62382879"/>
 <trip id="394" depart="850.3" from="24449389#0" to="-15240373#4"/>
 <trip id="395" depart="854.4" from="264777229" to="127809159#1"/>
 <trip id="396" depart="854.6" from="25614338#0" to="36729013#3"/>
 <trip id="397" depart="858.3" from="217189185#1" to="-122962417#1"/>
 <trip id="398" depart="862.3" from="37287287" to="114555280"/>
 <trip id="399" depart="862.5" from="193134988#1" to="14472965#1"/>
 <trip id="400" depart="865.6" from="81796218#0" to="37293912#0"/>
 <trip id="401" depart="868.9" from="76354131#0" to="114554802#8"/>
 <trip id="402" depart="869.0" from="-244282080#1" to="76354128"/>
 <trip id="403" depart="870.4" from="342598832" to="-260944120"/>
 <trip id="404" depart="870.9" from="234002842#1" to="82408453#1"/>
 <trip id="405" depart="871.6" from="60754209#0" to="74307845"/>
 <trip id="406" depart="874.8" from="317000782" to="234072361"/>
 <trip id="407" depart="874.8" from="-4247500#1" to="-77893344#0"/>
 <trip id="408" depart="877.1" from="-36729017" to="81356832#0"/>
 <trip id="409" depart="880.7" from="75384668" to="76336872#1"/>
 <trip id="410" depart="887.4" from="77615982" to="234100809#1"/>
 <trip id="411" depart="887.7" from="81527786" to="234072360#1"/>
 <trip id="412" depart="889.5" from="62212736#0" to="-114554802#8"/>
 <trip id="413" depart="894.1" from="-81924145#3" to="-75510906#0"/>
 <trip id="414" depart="894.8" from="324204711#1" to="29400781#2"/>
 <trip id="415" depart="895.2" from="37287288#0" to="36729013#4"/>
 <trip id="416" depart="897.4" from="333061574#3" to="186631612#2"/>
 <trip id="417" depart="898.5" from="-36729037#1" to="-4243036#1"/>
 <trip id="418" depart="900.7" from="-62382996" to="-14472965#0"/>
 <trip id="419" depart="901.2" from="76354127#0" to="-29186154#3"/>
 <trip id="420" depart="902.5" from="-14472965#1" to="42919373#2"/>
 <trip id="421" depart="902.9" from="37265518#2" to="7921561#1"/>
 <trip id="422" depart="903.2" from="332399559" to="234072362"/>
 <trip id="423" depart="903.6" from="122950930" to="234100809#1"/>
 <trip id="424" depart="906.9" from="-81356832#0" to="29186154#1"/>
 <trip id="425" depart="909.4" from="80715861#2" to="-4247500#0"/>
 <trip id="426" depart="911.8" from="97129661#3" to="80727850#1"/>
 <trip id="427" depart="913.8" from="-80715865#0" to="81523597"/>
 <trip id="428" depart="916.2" from="187794586" to="29186154#1"/>
 <trip id="429" depart="918.2" from="14472965#1" to="81356832#0"/>
 <trip id="430" depart="918.3" from="-333061573#0" to="234072360#2"/>
 <trip id="431" depart="918.5" from="234100809#1" to="30602647"/>
 <trip id="432" depart="918.9" from="30001902#6" to="42919375"/>
 <trip id="433" depart="918.9" from="30528384#1" to="-4247500#1"/>
 <trip id="434" depart="920.0" from="231158430#1" to="36729013#0"/>
 <trip id="435" depart="920.3" from="-186631612#2" to="317000784#0"/>
 <trip id="436" depart="920.4" from="-14472965#0" to="38156743#2"/>
 <trip id="437" depart="922.3" from="81523598#1" to="-4247500#1"/>
 <trip id="438" depart="923.7" from="77893328#1" to="74307849"/>
 <trip id="439" depart="923.7" from="81924132#0" to="51707741#3"/>
 <trip id="440" depart="924.8" from="36726224" to="37293912#0"/>
 <trip id="441" depart="926.0" from="-4247500#0" to="34001455#0"/>
 <trip id="442" depart="927.6" from="-36730332#1" to="4247500#2"/>
 <trip id="443" depart="930.2" from="211958287#1" to="77615448#0"/>
 <trip id="444" depart="930.9" from="-36726223#0" to="-317000781#0"/>
 <trip id="445" depart="931.0" from="36729028#1" to="315443482#0"/>